<configuration>
    <input>
        <net-file value="osm.net.xml"/>
        <route-files value="osm.rou.xml"/>
    </input>
    <gui_only>
        <gui-settings-file value="osm.view.xml"/>
    </gui_only>
</configuration>