<net xmlns:xsi="http://www.w3.org/2001/XMLSchema-instance" version="0.27" xsi:noNamespaceSchemaLocation="http://sumo.dlr.de/xsd/net_file.xsd">
	<location convBoundary="0.00,0.00,600.00,600.00" netOffset="300.00,300.00" origBoundary="-310.00,-310.00,310.00,310.00" projParameter="!" />
	<type id="come_out_of_junction" numLanes="1" priority="46" speed="11.11" />
	<type id="come_out_of_rd" numLanes="1" priority="40" speed="11.11" />
	<type id="go_in_to_junction" numLanes="1" priority="78" speed="19.44" />
	<edge function="internal" id=":1_0">
		<lane id=":1_0_0" index="0" length="5.99" shape="-0.00,302.05 -1.54,301.03 -2.05,300.00 -1.54,298.98 -0.00,297.95" speed="15.28" width="4.00" />
	</edge>
	<edge function="internal" id=":2_0">
		<lane id=":2_0_0" index="0" length="5.99" shape="600.00,297.95 601.54,298.97 602.05,300.00 601.54,301.02 600.00,302.05" speed="15.28" width="4.00" />
	</edge>
	<edge function="internal" id=":3_0">
		<lane id=":3_0_0" index="0" length="5.99" shape="297.95,-0.00 298.97,-1.54 300.00,-2.05 301.02,-1.54 302.05,-0.00" speed="15.28" width="4.00" />
	</edge>
	<edge function="internal" id=":4_0">
		<lane id=":4_0_0" index="0" length="5.99" shape="302.05,600.00 301.03,601.54 300.00,602.05 298.98,601.54 297.95,600.00" speed="15.28" width="4.00" />
	</edge>
	<edge function="internal" id=":node0_0">
		<lane id=":node0_0_0" index="0" length="5.64" shape="289.75,313.75 289.53,312.22 288.88,311.13 287.78,310.47 286.25,310.25" speed="15.28" width="4.00" />
	</edge>
	<edge function="internal" id=":node0_1">
		<lane id=":node0_1_0" index="0" length="27.50" shape="289.75,313.75 289.75,286.25" speed="15.28" width="4.00" />
		<lane id=":node0_1_1" index="1" length="27.50" shape="293.85,313.75 293.85,286.25" speed="15.28" width="4.00" />
	</edge>
	<edge function="internal" id=":node0_3">
		<lane id=":node0_3_0" index="0" length="15.36" shape="297.95,313.75 298.94,306.84 301.90,301.90 304.15,300.55" speed="15.28" width="4.00" />
	</edge>
	<edge function="internal" id=":node0_16">
		<lane id=":node0_16_0" index="0" length="10.12" shape="304.15,300.55 306.84,298.94 313.75,297.95" speed="15.28" width="4.00" />
	</edge>
	<edge function="internal" id=":node0_4">
		<lane id=":node0_4_0" index="0" length="5.64" shape="313.75,310.25 312.22,310.47 311.13,311.13 310.47,312.22 310.25,313.75" speed="15.28" width="4.00" />
	</edge>
	<edge function="internal" id=":node0_5">
		<lane id=":node0_5_0" index="0" length="27.50" shape="313.75,310.25 286.25,310.25" speed="15.28" width="4.00" />
		<lane id=":node0_5_1" index="1" length="27.50" shape="313.75,306.15 286.25,306.15" speed="15.28" width="4.00" />
	</edge>
	<edge function="internal" id=":node0_7">
		<lane id=":node0_7_0" index="0" length="15.36" shape="313.75,302.05 306.84,301.06 301.90,298.10 300.55,295.85" speed="15.28" width="4.00" />
	</edge>
	<edge function="internal" id=":node0_17">
		<lane id=":node0_17_0" index="0" length="10.12" shape="300.55,295.85 298.94,293.16 297.95,286.25" speed="15.28" width="4.00" />
	</edge>
	<edge function="internal" id=":node0_8">
		<lane id=":node0_8_0" index="0" length="5.64" shape="310.25,286.25 310.47,287.78 311.13,288.88 312.22,289.53 313.75,289.75" speed="15.28" width="4.00" />
	</edge>
	<edge function="internal" id=":node0_9">
		<lane id=":node0_9_0" index="0" length="27.50" shape="310.25,286.25 310.25,313.75" speed="15.28" width="4.00" />
		<lane id=":node0_9_1" index="1" length="27.50" shape="306.15,286.25 306.15,313.75" speed="15.28" width="4.00" />
	</edge>
	<edge function="internal" id=":node0_11">
		<lane id=":node0_11_0" index="0" length="15.36" shape="302.05,286.25 301.06,293.16 298.10,298.10 295.85,299.45" speed="15.28" width="4.00" />
	</edge>
	<edge function="internal" id=":node0_18">
		<lane id=":node0_18_0" index="0" length="10.12" shape="295.85,299.45 293.16,301.06 286.25,302.05" speed="15.28" width="4.00" />
	</edge>
	<edge function="internal" id=":node0_12">
		<lane id=":node0_12_0" index="0" length="5.64" shape="286.25,289.75 287.78,289.53 288.88,288.88 289.53,287.78 289.75,286.25" speed="15.28" width="4.00" />
	</edge>
	<edge function="internal" id=":node0_13">
		<lane id=":node0_13_0" index="0" length="27.50" shape="286.25,289.75 313.75,289.75" speed="15.28" width="4.00" />
		<lane id=":node0_13_1" index="1" length="27.50" shape="286.25,293.85 313.75,293.85" speed="15.28" width="4.00" />
	</edge>
	<edge function="internal" id=":node0_15">
		<lane id=":node0_15_0" index="0" length="15.36" shape="286.25,297.95 293.16,298.94 298.10,301.90 299.45,304.15" speed="15.28" width="4.00" />
	</edge>
	<edge function="internal" id=":node0_19">
		<lane id=":node0_19_0" index="0" length="10.12" shape="299.45,304.15 301.06,306.84 302.05,313.75" speed="15.28" width="4.00" />
	</edge>
	<edge from="node0" id="edge0-1" priority="46" to="1" type="come_out_of_junction">
		<lane id="edge0-1_0" index="0" length="286.25" shape="286.25,310.25 -0.00,310.25" speed="11.11" width="4.00" />
		<lane id="edge0-1_1" index="1" length="286.25" shape="286.25,306.15 -0.00,306.15" speed="11.11" width="4.00" />
		<lane id="edge0-1_2" index="2" length="286.25" shape="286.25,302.05 -0.00,302.05" speed="11.11" width="4.00" />
	</edge>
	<edge from="node0" id="edge0-2" priority="46" to="2" type="come_out_of_junction">
		<lane id="edge0-2_0" index="0" length="286.25" shape="313.75,289.75 600.00,289.75" speed="11.11" width="4.00" />
		<lane id="edge0-2_1" index="1" length="286.25" shape="313.75,293.85 600.00,293.85" speed="11.11" width="4.00" />
		<lane id="edge0-2_2" index="2" length="286.25" shape="313.75,297.95 600.00,297.95" speed="11.11" width="4.00" />
	</edge>
	<edge from="node0" id="edge0-3" priority="46" to="3" type="come_out_of_junction">
		<lane id="edge0-3_0" index="0" length="286.25" shape="289.75,286.25 289.75,-0.00" speed="11.11" width="4.00" />
		<lane id="edge0-3_1" index="1" length="286.25" shape="293.85,286.25 293.85,-0.00" speed="11.11" width="4.00" />
		<lane id="edge0-3_2" index="2" length="286.25" shape="297.95,286.25 297.95,-0.00" speed="11.11" width="4.00" />
	</edge>
	<edge from="node0" id="edge0-4" priority="46" to="4" type="come_out_of_junction">
		<lane id="edge0-4_0" index="0" length="286.25" shape="310.25,313.75 310.25,600.00" speed="11.11" width="4.00" />
		<lane id="edge0-4_1" index="1" length="286.25" shape="306.15,313.75 306.15,600.00" speed="11.11" width="4.00" />
		<lane id="edge0-4_2" index="2" length="286.25" shape="302.05,313.75 302.05,600.00" speed="11.11" width="4.00" />
	</edge>
	<edge from="1" id="edge1-0" priority="78" to="node0" type="go_in_to_junction">
		<lane id="edge1-0_0" index="0" length="286.25" shape="-0.00,289.75 286.25,289.75" speed="19.44" width="4.00" />
		<lane id="edge1-0_1" index="1" length="286.25" shape="-0.00,293.85 286.25,293.85" speed="19.44" width="4.00" />
		<lane id="edge1-0_2" index="2" length="286.25" shape="-0.00,297.95 286.25,297.95" speed="19.44" width="4.00" />
	</edge>
	<edge from="2" id="edge2-0" priority="78" to="node0" type="go_in_to_junction">
		<lane id="edge2-0_0" index="0" length="286.25" shape="600.00,310.25 313.75,310.25" speed="19.44" width="4.00" />
		<lane id="edge2-0_1" index="1" length="286.25" shape="600.00,306.15 313.75,306.15" speed="19.44" width="4.00" />
		<lane id="edge2-0_2" index="2" length="286.25" shape="600.00,302.05 313.75,302.05" speed="19.44" width="4.00" />
	</edge>
	<edge from="3" id="edge3-0" priority="78" to="node0" type="go_in_to_junction">
		<lane id="edge3-0_0" index="0" length="286.25" shape="310.25,-0.00 310.25,286.25" speed="19.44" width="4.00" />
		<lane id="edge3-0_1" index="1" length="286.25" shape="306.15,-0.00 306.15,286.25" speed="19.44" width="4.00" />
		<lane id="edge3-0_2" index="2" length="286.25" shape="302.05,-0.00 302.05,286.25" speed="19.44" width="4.00" />
	</edge>
	<edge from="4" id="edge4-0" priority="78" to="node0" type="go_in_to_junction">
		<lane id="edge4-0_0" index="0" length="286.25" shape="289.75,600.00 289.75,313.75" speed="19.44" width="4.00" />
		<lane id="edge4-0_1" index="1" length="286.25" shape="293.85,600.00 293.85,313.75" speed="19.44" width="4.00" />
		<lane id="edge4-0_2" index="2" length="286.25" shape="297.95,600.00 297.95,313.75" speed="19.44" width="4.00" />
	</edge>
	<tlLogic id="node0" offset="0" programID="0" type="static">
		<phase duration="10000" state="grrrgGGGgrrrgGGG" />
		<phase duration="10000" state="gGGGgrrrgGGGgrrr" />
	</tlLogic>
	<junction id="1" incLanes="edge0-1_0 edge0-1_1 edge0-1_2" intLanes=":1_0_0" shape="-0.00,299.95 -0.00,312.25 -0.00,300.05" type="priority" x="0.00" y="300.00">
		<request cont="0" foes="0" index="0" response="0" />
	</junction>
	<junction id="2" incLanes="edge0-2_0 edge0-2_1 edge0-2_2" intLanes=":2_0_0" shape="600.00,300.05 600.00,287.75 600.00,299.95" type="priority" x="600.00" y="300.00">
		<request cont="0" foes="0" index="0" response="0" />
	</junction>
	<junction id="3" incLanes="edge0-3_0 edge0-3_1 edge0-3_2" intLanes=":3_0_0" shape="300.05,-0.00 287.75,-0.00 299.95,-0.00" type="priority" x="300.00" y="0.00">
		<request cont="0" foes="0" index="0" response="0" />
	</junction>
	<junction id="4" incLanes="edge0-4_0 edge0-4_1 edge0-4_2" intLanes=":4_0_0" shape="299.95,600.00 312.25,600.00 300.05,600.00" type="priority" x="300.00" y="600.00">
		<request cont="0" foes="0" index="0" response="0" />
	</junction>
	<junction id="node0" incLanes="edge4-0_0 edge4-0_1 edge4-0_2 edge2-0_0 edge2-0_1 edge2-0_2 edge3-0_0 edge3-0_1 edge3-0_2 edge1-0_0 edge1-0_1 edge1-0_2" intLanes=":node0_0_0 :node0_1_0 :node0_1_1 :node0_16_0 :node0_4_0 :node0_5_0 :node0_5_1 :node0_17_0 :node0_8_0 :node0_9_0 :node0_9_1 :node0_18_0 :node0_12_0 :node0_13_0 :node0_13_1 :node0_19_0" shape="287.75,313.75 312.25,313.75 313.75,312.25 313.75,287.75 312.25,286.25 287.75,286.25 286.25,287.75 286.25,312.25" type="traffic_light" x="300.00" y="300.00">
		<request cont="0" foes="0000100001100000" index="0" response="0000000000000000" />
		<request cont="0" foes="1111100011100000" index="1" response="0000000000000000" />
		<request cont="0" foes="1111100011100000" index="2" response="0000000000000000" />
		<request cont="1" foes="1110011111100000" index="3" response="0000011100000000" />
		<request cont="0" foes="1000011000000000" index="4" response="0000011000000000" />
		<request cont="0" foes="1000111000001111" index="5" response="0000111000001111" />
		<request cont="0" foes="1000111000001111" index="6" response="0000111000001111" />
		<request cont="1" foes="0111111000001110" index="7" response="0111111000001110" />
		<request cont="0" foes="0110000000001000" index="8" response="0000000000000000" />
		<request cont="0" foes="1110000011111000" index="9" response="0000000000000000" />
		<request cont="0" foes="1110000011111000" index="10" response="0000000000000000" />
		<request cont="1" foes="1110000011100111" index="11" response="0000000000000111" />
		<request cont="0" foes="0000000010000110" index="12" response="0000000000000110" />
		<request cont="0" foes="0000111110001110" index="13" response="0000111100001110" />
		<request cont="0" foes="0000111110001110" index="14" response="0000111100001110" />
		<request cont="1" foes="0000111001111110" index="15" response="0000111001111110" />
	</junction>
	<junction id=":node0_16_0" incLanes=":node0_3_0 edge3-0_0 edge3-0_1" intLanes=":node0_5_0 :node0_5_1 :node0_7_0 :node0_8_0 :node0_9_0 :node0_9_1 :node0_13_0 :node0_13_1 :node0_15_0" type="internal" x="304.15" y="300.55" />
	<junction id=":node0_17_0" incLanes=":node0_7_0 edge1-0_0 edge1-0_1" intLanes=":node0_1_0 :node0_1_1 :node0_3_0 :node0_9_0 :node0_9_1 :node0_11_0 :node0_12_0 :node0_13_0 :node0_13_1" type="internal" x="300.55" y="295.85" />
	<junction id=":node0_18_0" incLanes=":node0_11_0 edge4-0_0 edge4-0_1" intLanes=":node0_0_0 :node0_1_0 :node0_1_1 :node0_5_0 :node0_5_1 :node0_7_0 :node0_13_0 :node0_13_1 :node0_15_0" type="internal" x="295.85" y="299.45" />
	<junction id=":node0_19_0" incLanes=":node0_15_0 edge2-0_0 edge2-0_1" intLanes=":node0_1_0 :node0_1_1 :node0_3_0 :node0_4_0 :node0_5_0 :node0_5_1 :node0_9_0 :node0_9_1 :node0_11_0" type="internal" x="299.45" y="304.15" />
	<connection dir="t" from="edge0-1" fromLane="2" state="M" to="edge1-0" toLane="2" via=":1_0_0" />
	<connection dir="t" from="edge0-2" fromLane="2" state="M" to="edge2-0" toLane="2" via=":2_0_0" />
	<connection dir="t" from="edge0-3" fromLane="2" state="M" to="edge3-0" toLane="2" via=":3_0_0" />
	<connection dir="t" from="edge0-4" fromLane="2" state="M" to="edge4-0" toLane="2" via=":4_0_0" />
	<connection dir="r" from="edge1-0" fromLane="0" linkIndex="12" state="o" tl="node0" to="edge0-3" toLane="0" via=":node0_12_0" />
	<connection dir="s" from="edge1-0" fromLane="0" linkIndex="13" state="o" tl="node0" to="edge0-2" toLane="0" via=":node0_13_0" />
	<connection dir="s" from="edge1-0" fromLane="1" linkIndex="14" state="o" tl="node0" to="edge0-2" toLane="1" via=":node0_13_1" />
	<connection dir="l" from="edge1-0" fromLane="2" linkIndex="15" state="o" tl="node0" to="edge0-4" toLane="2" via=":node0_15_0" />
	<connection dir="r" from="edge2-0" fromLane="0" linkIndex="4" state="o" tl="node0" to="edge0-4" toLane="0" via=":node0_4_0" />
	<connection dir="s" from="edge2-0" fromLane="0" linkIndex="5" state="o" tl="node0" to="edge0-1" toLane="0" via=":node0_5_0" />
	<connection dir="s" from="edge2-0" fromLane="1" linkIndex="6" state="o" tl="node0" to="edge0-1" toLane="1" via=":node0_5_1" />
	<connection dir="l" from="edge2-0" fromLane="2" linkIndex="7" state="o" tl="node0" to="edge0-3" toLane="2" via=":node0_7_0" />
	<connection dir="r" from="edge3-0" fromLane="0" linkIndex="8" state="o" tl="node0" to="edge0-2" toLane="0" via=":node0_8_0" />
	<connection dir="s" from="edge3-0" fromLane="0" linkIndex="9" state="o" tl="node0" to="edge0-4" toLane="0" via=":node0_9_0" />
	<connection dir="s" from="edge3-0" fromLane="1" linkIndex="10" state="o" tl="node0" to="edge0-4" toLane="1" via=":node0_9_1" />
	<connection dir="l" from="edge3-0" fromLane="2" linkIndex="11" state="o" tl="node0" to="edge0-1" toLane="2" via=":node0_11_0" />
	<connection dir="r" from="edge4-0" fromLane="0" linkIndex="0" state="o" tl="node0" to="edge0-1" toLane="0" via=":node0_0_0" />
	<connection dir="s" from="edge4-0" fromLane="0" linkIndex="1" state="o" tl="node0" to="edge0-3" toLane="0" via=":node0_1_0" />
	<connection dir="s" from="edge4-0" fromLane="1" linkIndex="2" state="o" tl="node0" to="edge0-3" toLane="1" via=":node0_1_1" />
	<connection dir="l" from="edge4-0" fromLane="2" linkIndex="3" state="o" tl="node0" to="edge0-2" toLane="2" via=":node0_3_0" />
	<connection dir="s" from=":1_0" fromLane="0" state="M" to="edge1-0" toLane="2" />
	<connection dir="s" from=":2_0" fromLane="0" state="M" to="edge2-0" toLane="2" />
	<connection dir="s" from=":3_0" fromLane="0" state="M" to="edge3-0" toLane="2" />
	<connection dir="s" from=":4_0" fromLane="0" state="M" to="edge4-0" toLane="2" />
	<connection dir="s" from=":node0_0" fromLane="0" state="M" to="edge0-1" toLane="0" />
	<connection dir="s" from=":node0_1" fromLane="0" state="M" to="edge0-3" toLane="0" />
	<connection dir="s" from=":node0_1" fromLane="1" state="M" to="edge0-3" toLane="1" />
	<connection dir="s" from=":node0_3" fromLane="0" state="m" to="edge0-2" toLane="2" via=":node0_16_0" />
	<connection dir="s" from=":node0_16" fromLane="0" state="M" to="edge0-2" toLane="2" />
	<connection dir="s" from=":node0_4" fromLane="0" state="M" to="edge0-4" toLane="0" />
	<connection dir="s" from=":node0_5" fromLane="0" state="M" to="edge0-1" toLane="0" />
	<connection dir="s" from=":node0_5" fromLane="1" state="M" to="edge0-1" toLane="1" />
	<connection dir="s" from=":node0_7" fromLane="0" state="m" to="edge0-3" toLane="2" via=":node0_17_0" />
	<connection dir="s" from=":node0_17" fromLane="0" state="M" to="edge0-3" toLane="2" />
	<connection dir="s" from=":node0_8" fromLane="0" state="M" to="edge0-2" toLane="0" />
	<connection dir="s" from=":node0_9" fromLane="0" state="M" to="edge0-4" toLane="0" />
	<connection dir="s" from=":node0_9" fromLane="1" state="M" to="edge0-4" toLane="1" />
	<connection dir="s" from=":node0_11" fromLane="0" state="m" to="edge0-1" toLane="2" via=":node0_18_0" />
	<connection dir="s" from=":node0_18" fromLane="0" state="M" to="edge0-1" toLane="2" />
	<connection dir="s" from=":node0_12" fromLane="0" state="M" to="edge0-3" toLane="0" />
	<connection dir="s" from=":node0_13" fromLane="0" state="M" to="edge0-2" toLane="0" />
	<connection dir="s" from=":node0_13" fromLane="1" state="M" to="edge0-2" toLane="1" />
	<connection dir="s" from=":node0_15" fromLane="0" state="m" to="edge0-4" toLane="2" via=":node0_19_0" />
	<connection dir="s" from=":node0_19" fromLane="0" state="M" to="edge0-4" toLane="2" />
</net>