<configuration xmlns:xsi="http://www.w3.org/2001/XMLSchema-instance" xsi:noNamespaceSchemaLocation="http://sumo.dlr.de/xsd/sumoConfiguration.xsd">

    <input>
        <net-file value="osm.net.xml" />
        <additional-files value="cross.tls.switch.xml, cross.car.type.xml" />

    <route-files value="osm.rou.xml" /></input>
</configuration>