<?xml version="1.0" encoding="UTF-8"?>

<!-- generated on 2021-10-25 14:16:05 by Eclipse SUMO polyconvert Version 1.10.0
<configuration xmlns:xsi="http://www.w3.org/2001/XMLSchema-instance" xsi:noNamespaceSchemaLocation="http://sumo.dlr.de/xsd/polyconvertConfiguration.xsd">

    <input>
        <net-file value="osm.net.xml"/>
        <osm-files value="osm_bbox.osm.xml"/>
        <osm.keep-full-type value="true"/>
        <type-file value="D:\Software\Sumo\data\typemap\osmPolyconvert.typ.xml"/>
    </input>

    <output>
        <output-file value="osm.poly.xml"/>
    </output>

    <processing>
        <poi-layer-offset value="5"/>
    </processing>

    <report>
        <verbose value="true"/>
    </report>

</configuration>
-->

<additional xmlns:xsi="http://www.w3.org/2001/XMLSchema-instance" xsi:noNamespaceSchemaLocation="http://sumo.dlr.de/xsd/additional_file.xsd">
    <location netOffset="-362411.49,-142028.22" convBoundary="-7592.43,-5184.85,9481.98,8651.16" origBoundary="103.695045,1.237804,103.848544,1.362891" projParameter="+proj=utm +zone=48 +ellps=WGS84 +datum=WGS84 +units=m +no_defs"/>

    <poly id="103542034" type="building.yes" color="255,230,230" fill="1" layer="-1.00" shape="1972.776760,2488.915455 1962.729642,2467.439338 1994.590973,2453.339065 2004.504986,2475.688638 1972.776760,2488.915455"/>
    <poly id="104660496" type="amenity.toilets" color="237,199,199" fill="1" layer="-1.00" shape="1893.693783,2461.314895 1891.187596,2456.009431 1904.726629,2450.408732 1907.176944,2455.227776 1901.392133,2457.928148 1900.201795,2458.481505 1899.022585,2459.034857 1893.693783,2461.314895"/>
    <poly id="104660496#1" type="building.yes" color="255,230,230" fill="1" layer="-1.00" shape="1893.693783,2461.314895 1891.187596,2456.009431 1904.726629,2450.408732 1907.176944,2455.227776 1901.392133,2457.928148 1900.201795,2458.481505 1899.022585,2459.034857 1893.693783,2461.314895"/>
    <poly id="104660521" type="amenity.parking" color="184,184,179" fill="1" layer="-1.00" shape="1934.246195,2448.791341 1925.469678,2431.659448 1952.814074,2418.965424 1959.956050,2415.545784 1969.700894,2433.229986 1934.246195,2448.791341"/>
    <poly id="104660548" type="amenity.parking" color="184,184,179" fill="1" layer="-1.00" shape="1844.653323,2500.807155 1832.823798,2475.119721 1797.858848,2491.001480 1809.677257,2516.699976 1844.653323,2500.807155"/>
    <poly id="104660686" type="building.yes" color="255,230,230" fill="1" layer="-1.00" shape="2016.860093,2506.793043 2010.801054,2494.701180 2016.118088,2491.105536 2015.494565,2490.276670 2014.692880,2489.182557 2007.451406,2493.928915 2014.534986,2507.756007 2016.860093,2506.793043"/>
    <poly id="104660687" type="building.yes" color="255,230,230" fill="1" layer="-1.00" shape="1875.175611,2501.820495 1864.805273,2479.272139 1901.172257,2463.422880 1903.452782,2462.305158 1903.675282,2462.216605 1909.716040,2459.560332 1910.683893,2459.128695 1912.018867,2458.542100 1934.246195,2448.791341 1969.700894,2433.229986 1975.964152,2430.485162 1985.065824,2452.713519 1985.567142,2453.940445 1876.288090,2501.333508 1875.175611,2501.820495"/>
    <poly id="104660742" type="amenity.parking" color="184,184,179" fill="1" layer="-1.00" shape="1873.320308,2462.043402 1870.357467,2455.831602 1850.911642,2464.995072 1853.874479,2471.195816 1873.320308,2462.043402"/>
    <poly id="104660828" type="building.yes" color="255,230,230" fill="1" layer="-1.00" shape="1909.716040,2459.560332 1901.440420,2442.793030 1902.374897,2442.372464 1903.698733,2441.763764 1912.018867,2458.542100 1910.683893,2459.128695 1909.716040,2459.560332"/>
    <poly id="104660868" type="amenity.parking" color="184,184,179" fill="1" layer="-1.00" shape="1919.829313,2388.081078 1916.744123,2381.968837 1865.003217,2405.708180 1869.781701,2415.865942 1874.827243,2426.034630 1926.701620,2402.195722 1919.829313,2388.081078"/>
    <poly id="104660895" type="amenity.parking" color="184,184,179" fill="1" layer="-1.00" shape="1761.068434,2528.508866 1763.035242,2522.958004 1757.837902,2520.992637 1760.572189,2514.833344 1765.513814,2517.230004 1753.571727,2488.911391 1762.048763,2485.082036 1780.539064,2524.596776 1771.561431,2528.680653 1770.080110,2525.784809 1767.712756,2531.402200 1761.068434,2528.508866"/>
    <poly id="104661036" type="building.yes" color="255,230,230" fill="1" layer="-1.00" shape="1952.814074,2418.965424 1941.764503,2395.411341 1926.701620,2402.195722 1874.827243,2426.034630 1867.896564,2429.210949 1879.669196,2452.322459 1901.440420,2442.793030 1903.698733,2441.763764 1925.469678,2431.659448 1952.814074,2418.965424"/>
    <poly id="104661082" type="amenity.parking" color="184,184,179" fill="1" layer="-1.00" shape="1808.168174,2479.576047 1846.470359,2461.813221 1835.554450,2438.568626 1791.233820,2459.120384 1802.160862,2482.364975 1808.168174,2479.576047"/>
    <poly id="104661165" type="building.yes" color="255,230,230" fill="1" layer="-1.00" shape="1903.675282,2462.216605 1901.392133,2457.928148 1900.201795,2458.481505 1899.022585,2459.034857 1901.172257,2463.422880 1902.340330,2462.847422 1903.452782,2462.305158 1903.675282,2462.216605"/>
    <poly id="104661236" type="building.yes" color="255,230,230" fill="1" layer="-1.00" shape="1972.776760,2488.915455 1962.729642,2467.439338 1877.847498,2504.638371 1876.679394,2505.147495 1886.737640,2526.601498 1887.194331,2527.585223 1891.733211,2525.526679 1971.263800,2489.601636 1972.776760,2488.915455"/>
    <poly id="104661369" type="leisure.sports_centre" color="207,245,201" fill="1" layer="-2.00" shape="1753.503760,2509.320042 1737.931476,2475.364843 1678.358621,2502.325237 1693.919785,2536.269388 1753.503760,2509.320042"/>
    <poly id="104661369#1" type="sport.tennis" color="79,230,125" fill="1" layer="-2.00" shape="1753.503760,2509.320042 1737.931476,2475.364843 1678.358621,2502.325237 1693.919785,2536.269388 1753.503760,2509.320042"/>
    <poly id="109013190" type="building.yes" color="255,230,230" fill="1" layer="-1.00" shape="2152.521890,983.169658 2152.542140,978.990642 2148.336045,978.970548 2148.407354,965.250548 2185.828252,965.453712 2185.736686,983.341671 2152.521890,983.169658"/>
    <poly id="109013191" type="building.hospital" color="255,230,230" fill="1" layer="-1.00" shape="2204.838835,953.327690 2205.745282,1010.462448 2216.794450,1010.158648 2223.662637,1015.793695 2245.649981,1015.772096 2276.783748,1015.469724 2285.436586,1006.864344 2266.923669,989.383308 2255.807537,989.267025 2245.136610,989.393752 2232.891143,977.835497 2232.835977,955.602771 2207.454915,955.802883 2204.838835,953.327690"/>
    <poly id="109013192" type="building.hospital" color="255,230,230" fill="1" layer="-1.00" shape="2119.453707,987.088141 2119.507654,960.377848 2138.156875,960.413123 2138.102931,987.134471 2119.453707,987.088141"/>
    <poly id="109013196" type="building.hospital" color="255,230,230" fill="1" layer="-1.00" shape="2066.866528,1010.296924 2067.144377,986.427801 2119.453707,987.088141 2138.102931,987.134471 2185.393853,987.741953 2185.127116,1011.600006 2138.392601,1011.080705 2121.679449,1010.900781 2066.866528,1010.296924"/>
    <poly id="109013197" type="building.hospital" color="255,230,230" fill="1" layer="-1.00" shape="2078.753240,1062.584092 2078.586480,1039.721241 2122.115968,1039.412898 2138.828975,1039.294320 2246.206130,1038.535247 2291.126488,1038.215208 2291.293320,1061.265987 2250.200712,1061.562083 2233.487712,1061.680656 2233.642607,1083.028888 2191.381643,1083.336611 2191.226650,1061.789376 2175.815524,1061.896271 2140.353243,1062.145459 2118.799920,1062.299529 2078.753240,1062.584092"/>
    <poly id="109013198" type="building.yes" color="255,230,230" fill="1" layer="-1.00" shape="2204.765398,939.408761 2204.490274,922.571258 2211.974830,914.110158 2255.537768,913.945560 2257.764327,916.277219 2263.909615,922.686505 2261.740886,924.931824 2257.047537,929.798523 2214.230013,929.730599 2204.765398,939.408761"/>
    <poly id="109013201" type="building.hospital" color="255,230,230" fill="1" layer="-1.00" shape="2067.521295,960.314349 2067.444626,939.673625 2067.432231,937.031348 2119.462981,936.840551 2136.932671,936.776894 2175.265841,936.636900 2183.522217,936.610830 2183.600144,959.893827 2138.156875,960.413123 2119.507654,960.377848 2067.521295,960.314349"/>
    <poly id="109013202" type="building.hospital" color="255,230,230" fill="1" layer="-1.00" shape="2207.454915,955.802883 2204.838835,953.327690 2197.780943,946.565064 2204.765398,939.408761 2214.230013,929.730599 2257.047537,929.798523 2261.740886,924.931824 2263.909615,922.686505 2257.764327,916.277219 2260.668522,916.264772 2295.596807,916.236984 2301.227182,916.256398 2322.112265,938.070084 2318.909617,942.217456 2315.251040,946.962047 2302.599624,947.410330 2297.425566,947.600754 2289.146912,947.571553 2266.903922,948.179212 2260.854294,955.633565 2255.980559,955.591678 2232.835977,955.602771 2207.454915,955.802883"/>
    <poly id="109013203" type="building.hospital" color="255,230,230" fill="1" layer="-1.00" shape="2122.115968,1039.412898 2121.679449,1010.900781 2138.392601,1011.080705 2138.828975,1039.294320 2122.115968,1039.412898"/>
    <poly id="109013204" type="building.hospital" color="255,230,230" fill="1" layer="-1.00" shape="2255.807537,989.267025 2255.980559,955.591678 2260.854294,955.633565 2266.903922,948.179212 2289.146912,947.571553 2281.085227,959.128485 2281.259054,996.783668 2285.436586,1006.864344 2266.923669,989.383308 2255.807537,989.267025"/>
    <poly id="109013205" type="building.hospital" color="255,230,230" fill="1" layer="-1.00" shape="2059.772723,1114.112196 2058.991497,1039.785928 2078.586480,1039.721241 2078.753240,1062.584092 2079.066073,1088.398712 2119.068177,1087.981500 2118.799920,1062.299529 2140.353243,1062.145459 2140.633389,1089.419425 2176.095609,1089.048623 2175.815524,1061.896271 2191.226650,1061.789376 2191.381643,1083.336611 2191.484765,1089.538737 2233.734542,1089.109407 2233.642607,1083.028888 2233.487712,1061.680656 2250.200712,1061.562083 2250.480900,1088.946595 2291.617950,1088.517807 2291.293320,1061.265987 2291.126488,1038.215208 2307.449991,1038.008382 2307.695052,1061.766680 2308.243000,1113.838140 2298.929586,1113.942107 2299.069232,1126.700165 2291.458268,1126.781205 2279.340806,1126.897574 2279.305632,1123.160809 2260.890214,1123.357589 2261.041817,1137.840312 2263.445280,1137.817047 2267.907264,1137.770684 2268.140715,1160.500822 2263.756622,1160.547148 2261.275269,1160.570450 2261.310189,1163.776549 2257.615976,1163.811489 2153.899870,1164.878399 2140.458278,1165.017523 2132.101795,1165.109982 2114.754571,1165.284150 2114.311571,1123.306345 2114.217870,1113.555373 2059.772723,1114.112196"/>
    <poly id="109044380" type="landuse.forest" color="140,196,107" fill="1" layer="-3.00" shape="2002.682872,1052.659559 1995.838262,1026.638014 1993.986312,1016.578327 1992.123230,1006.507589 1986.533363,975.001873 1987.811144,971.153918 2002.033331,928.151942 2016.464795,903.855909 2023.795485,899.385937 2058.158972,928.091836 2048.107105,966.138901 2038.781684,987.613309 2011.545436,1017.376949 2002.682872,1052.659559"/>
    <poly id="111973157" type="amenity.theatre" color="237,199,199" fill="1" layer="-1.00" shape="966.058179,1967.359644 974.780366,1941.341525 1009.781937,1954.657551 1009.774970,1940.351586 1015.594501,1940.348752 1021.114103,1941.385292 1024.998296,1943.019632 1020.375762,1956.133844 1031.570709,1958.129458 1052.722965,1888.380339 1086.828261,1889.181858 1100.724241,1930.998482 1109.059595,1956.068555 1112.826052,1967.288169 1089.919533,1976.331756 1064.629923,1981.540208 1040.083881,1982.735112 1023.003326,1982.146429 1006.656197,1979.567378 986.657640,1973.496531 966.058179,1967.359644"/>
    <poly id="111973157#1" type="building.yes" color="255,230,230" fill="1" layer="-1.00" shape="966.058179,1967.359644 974.780366,1941.341525 1009.781937,1954.657551 1009.774970,1940.351586 1015.594501,1940.348752 1021.114103,1941.385292 1024.998296,1943.019632 1020.375762,1956.133844 1031.570709,1958.129458 1052.722965,1888.380339 1086.828261,1889.181858 1100.724241,1930.998482 1109.059595,1956.068555 1112.826052,1967.288169 1089.919533,1976.331756 1064.629923,1981.540208 1040.083881,1982.735112 1023.003326,1982.146429 1006.656197,1979.567378 986.657640,1973.496531 966.058179,1967.359644"/>
    <poly id="118374584" type="amenity.restaurant" color="237,199,199" fill="1" layer="-1.00" shape="1585.895826,786.099693 1595.589248,789.422763 1594.477949,792.386197 1602.680327,795.721041 1604.547654,791.463739 1609.766593,792.014008 1614.617529,790.895060 1619.088720,786.824451 1621.133547,781.450450 1620.573889,774.596251 1616.276373,769.601190 1609.754475,766.818317 1604.536514,768.302276 1599.686555,771.455453 1597.640750,774.795226 1591.107724,772.012359 1585.895826,786.099693"/>
    <poly id="118374584#1" type="building.yes" color="255,230,230" fill="1" layer="-1.00" shape="1585.895826,786.099693 1595.589248,789.422763 1594.477949,792.386197 1602.680327,795.721041 1604.547654,791.463739 1609.766593,792.014008 1614.617529,790.895060 1619.088720,786.824451 1621.133547,781.450450 1620.573889,774.596251 1616.276373,769.601190 1609.754475,766.818317 1604.536514,768.302276 1599.686555,771.455453 1597.640750,774.795226 1591.107724,772.012359 1585.895826,786.099693"/>
    <poly id="119802912" type="amenity.parking" color="184,184,179" fill="1" layer="-1.00" shape="500.518339,780.797593 506.665034,789.948678 525.975352,776.263496 529.193455,781.049025 538.036454,774.477692 535.352847,770.487909 550.704445,762.144521 549.724125,759.834369 554.541077,757.444018 553.471739,755.133909 561.325660,751.139020 558.741599,745.910958 553.735440,748.212955 551.418904,743.957659 520.971032,759.406080 500.971159,773.788101 503.921951,778.043089 500.518339,780.797593"/>
    <poly id="119817381" type="leisure.swimming_pool" color="207,245,201" fill="1" layer="-2.00" shape="1102.991634,1077.194517 1137.746885,1041.246970 1125.122766,1029.202457 1090.367513,1065.150006 1102.991634,1077.194517"/>
    <poly id="119851909" type="leisure.park" color="207,245,201" fill="1" layer="-2.00" shape="510.194744,611.122081 427.579059,666.141786 421.919586,675.044318 419.175103,683.204709 419.100975,690.965803 419.939038,698.217895 421.255188,704.673749 425.631313,711.072841 437.629979,718.197909 445.074274,718.492802 484.453519,695.113153 545.553440,672.187332 617.113715,650.737925 705.038388,621.386913 835.682881,596.636557 1077.826978,511.822636 1089.375134,507.781773 1106.428967,498.929066 1127.409995,488.559851 1150.640248,481.340404 1167.585487,478.048728 1184.430458,474.502823 1273.910852,440.872829 1429.248208,373.082606 1444.687977,362.948263 1445.663645,355.595821 1409.101460,313.392040 1238.233196,109.111235 1213.310229,136.729051 1179.179197,198.568407 1151.485838,226.773521 1120.606570,247.672416 1012.448483,315.042089 748.488589,479.478009 608.047053,563.037996 510.194744,611.122081"/>
    <poly id="119851912" type="leisure.park" color="207,245,201" fill="1" layer="-2.00" shape="-230.613004,1801.236936 -125.902278,1830.394599 -54.346543,1686.713353 16.985101,1539.616110 157.561116,1231.338020 211.966713,1103.265005 235.274588,1004.084520 249.951739,981.767088 285.964939,901.176046 309.035369,862.735422 328.449415,833.528042 356.020274,805.366993 368.554509,792.569533 392.689594,769.661591 398.052597,746.010978 394.360178,726.864403 379.229391,708.707328 363.236637,702.844541 344.489680,708.038731 35.721533,897.328809 59.454777,940.434294 59.770525,949.024382 56.780979,956.610015 49.740202,962.351327 5.077278,989.315714 19.332477,1014.493544 -56.557586,1056.110864 -50.077208,1064.919061 -33.156704,1079.327381 -34.723968,1082.777510 -40.374082,1087.998536 -34.083392,1095.734426 -37.346215,1113.358732 -46.939166,1133.639485 -55.568395,1144.997855 -68.070722,1154.710824 -79.884889,1160.874592 -92.645944,1164.849804 -103.318061,1162.699162 -121.077351,1139.623620 -117.907133,1137.455163 -132.626975,1117.860668 -137.901789,1116.879290 -156.912048,1129.735250 -157.209741,1135.351670 -141.053866,1156.194753 -133.590358,1150.254219 -123.434661,1165.837738 -124.272613,1181.647739 -150.008150,1208.260227 -155.331646,1221.507509 -157.193389,1237.141122 -192.128895,1245.671059 -205.888171,1256.258054 -269.600715,1329.179211 -292.790664,1350.505885 -295.571191,1353.149551 -349.137024,1400.460873 -417.923484,1473.484120 -437.853450,1516.810014 -471.360392,1556.671100 -507.453555,1586.959257 -511.899791,1596.480376 -271.939516,1778.891619 -230.613004,1801.236936"/>
    <poly id="121291682" type="building.yes" color="255,230,230" fill="1" layer="-1.00" shape="1125.290820,1949.139843 1135.648451,1945.442228 1131.904659,1935.062830 1121.535894,1938.749394 1125.290820,1949.139843"/>
    <poly id="121291683" type="leisure.swimming_pool" color="207,245,201" fill="1" layer="-2.00" shape="1396.000749,1643.155009 1421.171348,1644.911708 1421.911846,1634.541195 1396.730119,1632.784501 1396.000749,1643.155009"/>
    <poly id="121291684" type="building.yes" color="255,230,230" fill="1" layer="-1.00" shape="1139.104590,1936.352834 1182.960536,1920.919979 1176.174815,1901.896574 1132.318865,1917.329427 1139.104590,1936.352834"/>
    <poly id="121293428" type="building.apartments" color="255,230,230" fill="1" layer="-1.00" shape="515.937926,1849.670980 528.525650,1855.446929 531.237843,1849.608229 538.661370,1853.009739 535.571239,1859.644629 547.413270,1865.078217 561.107636,1835.619322 571.257943,1840.268787 568.601325,1845.985847 580.543515,1851.452554 591.581262,1827.699667 579.460993,1822.144601 575.892892,1829.807896 568.736480,1826.527867 572.037802,1819.428539 560.140125,1813.972864 546.012248,1844.360643 535.550301,1839.556551 539.173978,1831.771615 526.886760,1826.139242 515.937926,1849.670980"/>
    <poly id="121293429" type="building.apartments" color="255,230,230" fill="1" layer="-1.00" shape="523.344577,1977.934837 510.745745,1972.192067 513.446808,1966.353371 506.023288,1962.962920 502.955421,1969.608857 491.102279,1964.208446 501.750885,1941.130128 504.718715,1934.705353 494.568418,1930.078003 491.922931,1935.795060 479.969621,1930.350475 490.951707,1906.575489 503.094222,1912.108428 499.548386,1919.782772 506.715916,1923.040681 509.994980,1915.941361 521.903768,1921.363858 514.712064,1936.944763 507.853816,1951.784777 518.338000,1956.555687 521.939412,1948.759704 534.237744,1954.369955 523.344577,1977.934837"/>
    <poly id="121293430" type="building.apartments" color="255,230,230" fill="1" layer="-1.00" shape="544.638771,1925.598112 557.215364,1931.374064 559.927556,1925.535364 567.351080,1928.936873 564.260957,1935.582818 576.102978,1941.005348 589.797335,1911.546453 599.947639,1916.195917 597.291024,1921.912976 609.233210,1927.379682 620.270954,1903.637851 608.150684,1898.071731 604.582585,1905.735026 597.426175,1902.454998 600.727495,1895.355670 588.829822,1889.899998 574.701954,1920.287776 564.240011,1915.483687 567.863685,1907.698751 555.576470,1902.066380 544.638771,1925.598112"/>
    <poly id="121293431" type="building.apartments" color="255,230,230" fill="1" layer="-1.00" shape="463.701819,1999.047101 451.102990,1993.315388 453.804045,1987.465635 446.380523,1984.075185 443.301536,1990.732185 431.448386,1985.320721 445.075948,1955.828669 434.914521,1951.201326 432.280162,1956.918380 420.326850,1951.473797 431.308924,1927.687747 443.451443,1933.220684 439.905608,1940.895031 447.062018,1944.164000 450.352203,1937.053616 462.261000,1942.487166 448.211049,1972.897040 458.684113,1977.679009 462.285524,1969.883023 474.583853,1975.482217 463.701819,1999.047101"/>
    <poly id="121293432" type="building.apartments" color="255,230,230" fill="1" layer="-1.00" shape="567.478177,1984.093364 580.065894,1989.869309 582.778084,1984.030609 590.190479,1987.432122 587.111485,1994.078061 598.953504,1999.500590 612.647853,1970.041696 622.798155,1974.691158 620.141541,1980.408217 632.072597,1985.874926 643.121463,1962.133090 630.990068,1956.566977 627.433098,1964.230267 620.276689,1960.950240 623.578008,1953.850912 611.680337,1948.395242 597.552477,1978.783020 587.090536,1973.978932 590.703081,1966.194001 578.426997,1960.561627 567.478177,1984.093364"/>
    <poly id="121293433" type="building.apartments" color="255,230,230" fill="1" layer="-1.00" shape="493.176159,1790.656059 505.752758,1796.432015 508.464953,1790.593316 515.888481,1793.994826 512.798349,1800.629716 524.640382,1806.063306 538.334756,1776.604411 548.485065,1781.253878 545.828441,1786.959882 557.770639,1792.437647 568.808392,1768.684760 556.688120,1763.129691 553.120017,1770.792986 545.963603,1767.512956 549.264928,1760.413628 537.367248,1754.957951 523.239362,1785.345731 512.777413,1780.541638 516.401092,1772.756701 504.113866,1767.113271 493.176159,1790.656059"/>
    <poly id="121293449" type="amenity.parking" color="184,184,179" fill="1" layer="-1.00" shape="478.977223,1789.468985 409.243767,1905.244536 410.126825,1913.436332 460.699679,1935.312821 463.123069,1930.513490 473.256350,1923.090203 478.832250,1925.453384 487.146594,1907.395466 481.581746,1904.877501 489.573634,1887.295133 494.771056,1889.348942 520.925209,1831.559414 516.473241,1829.361517 519.674655,1822.748684 515.719461,1812.457819 518.198237,1807.138849 478.977223,1789.468985"/>
    <poly id="121293451" type="building.yes" color="255,230,230" fill="1" layer="-1.00" shape="712.836808,1877.656166 721.692574,1874.567326 718.405512,1865.282203 709.549752,1868.382098 712.836808,1877.656166"/>
    <poly id="121293452" type="amenity.parking" color="184,184,179" fill="1" layer="-1.00" shape="475.653344,2000.843324 579.225169,2045.512719 589.606391,2021.771201 486.023439,1977.101801 475.653344,2000.843324"/>
    <poly id="121293453" type="building.yes" color="255,230,230" fill="1" layer="-1.00" shape="650.339055,1908.410259 713.074056,1884.985932 707.246999,1869.577230 644.500871,1893.012616 650.339055,1908.410259"/>
    <poly id="121293454" type="amenity.kindergarten" color="237,199,199" fill="1" layer="-1.00" shape="630.962231,1876.767448 646.070366,1871.353871 642.426874,1861.339248 651.560730,1858.062324 640.641379,1828.007394 628.403563,1832.391395 623.467570,1818.806433 611.474515,1823.112927 630.962231,1876.767448"/>
    <poly id="121293454#1" type="building.yes" color="255,230,230" fill="1" layer="-1.00" shape="630.962231,1876.767448 646.070366,1871.353871 642.426874,1861.339248 651.560730,1858.062324 640.641379,1828.007394 628.403563,1832.391395 623.467570,1818.806433 611.474515,1823.112927 630.962231,1876.767448"/>
    <poly id="124230875" type="building.yes" color="255,230,230" fill="1" layer="-1.00" shape="1172.430239,2369.650227 1154.660546,2347.724564 1174.503496,2331.407858 1192.862711,2352.891010 1172.430239,2369.650227"/>
    <poly id="124230878" type="building.yes" color="255,230,230" fill="1" layer="-1.00" shape="1131.177398,2383.545150 1170.787997,2401.844967 1174.411683,2394.104271 1178.335491,2385.722204 1182.103685,2377.682936 1142.570999,2359.427299 1137.835748,2369.534440 1147.429547,2373.963058 1145.450963,2378.176212 1135.779257,2373.714465 1131.177398,2383.545150"/>
    <poly id="124236990" type="building.yes" color="255,230,230" fill="1" layer="-1.00" shape="1169.876134,2403.006251 1135.174163,2387.854888 1134.518404,2389.380883 1131.091332,2389.592612 1130.038987,2399.299953 1123.547494,2413.200027 1158.883914,2428.760135 1169.876134,2403.006251"/>
    <poly id="124411297" type="building.yes" color="255,230,230" fill="1" layer="-1.00" shape="1121.028465,2358.829753 1143.383046,2358.940456 1143.495601,2338.763910 1121.141018,2338.653205 1121.028465,2358.829753"/>
    <poly id="124411299" type="building.yes" color="255,230,230" fill="1" layer="-1.00" shape="1131.348831,2301.600867 1184.000712,2320.325504 1190.379093,2302.633417 1187.530036,2301.617690 1189.141306,2297.161494 1190.732769,2297.724554 1203.145041,2263.258167 1187.542015,2257.715856 1183.308289,2269.481090 1187.225739,2270.872187 1185.481115,2275.682228 1167.307260,2269.223556 1162.143348,2267.390842 1161.032127,2270.464844 1157.181451,2269.095826 1158.348221,2265.844907 1154.263830,2264.387558 1145.839085,2261.395595 1131.348831,2301.600867"/>
    <poly id="124416265" type="building.yes" color="255,230,230" fill="1" layer="-1.00" shape="1172.644105,2306.235139 1168.772059,2306.679252 1147.257619,2295.247186 1150.735303,2284.731604 1179.614960,2294.147957 1176.283645,2308.179151 1172.644105,2306.235139"/>
    <poly id="124416265#1" type="landuse.meadow" color="194,194,130" fill="1" layer="-3.00" shape="1172.644105,2306.235139 1168.772059,2306.679252 1147.257619,2295.247186 1150.735303,2284.731604 1179.614960,2294.147957 1176.283645,2308.179151 1172.644105,2306.235139"/>
    <poly id="124416268" type="building.yes" color="255,230,230" fill="1" layer="-1.00" shape="1154.944871,2246.244967 1160.553612,2247.546795 1173.818734,2250.635900 1200.504766,2256.836145 1204.243928,2257.707716 1214.560589,2215.636095 1204.110831,2212.921506 1196.354192,2210.902109 1179.940861,2209.428655 1165.319729,2209.435781 1164.321994,2217.053583 1159.047607,2216.857153 1157.559883,2223.668134 1160.843273,2225.446487 1160.466193,2228.000517 1159.212937,2236.447615 1155.963738,2236.327587 1155.553708,2239.766082 1155.277231,2243.259790 1155.490082,2246.200479 1154.944871,2246.244967"/>
    <poly id="124542228" type="building.yes" color="255,230,230" fill="1" layer="-1.00" shape="1109.923146,2426.429192 1105.310308,2436.558387 1147.179926,2455.266150 1151.859451,2444.982146 1129.277437,2434.844119 1130.255587,2432.709908 1134.629532,2434.675672 1135.618788,2432.497233 1153.559740,2440.536960 1157.816881,2431.170779 1116.214597,2413.037773 1111.668457,2423.034267 1124.879056,2428.411900 1123.122850,2432.282222 1109.923146,2426.429192"/>
    <poly id="124543528" type="building.yes" color="255,230,230" fill="1" layer="-1.00" shape="1070.207434,2489.089701 1067.781294,2511.014171 1117.967590,2516.506399 1120.393739,2494.592989 1070.207434,2489.089701"/>
    <poly id="124543531" type="building.yes" color="255,230,230" fill="1" layer="-1.00" shape="1068.030415,2451.545897 1084.371731,2465.058931 1097.327360,2449.607909 1080.986045,2436.094875 1068.030415,2451.545897"/>
    <poly id="124543532" type="building.yes" color="255,230,230" fill="1" layer="-1.00" shape="1095.050923,2481.880358 1124.272930,2486.000883 1128.187479,2458.669497 1098.965464,2454.537913 1095.050923,2481.880358"/>
    <poly id="124549211" type="building.yes" color="255,230,230" fill="1" layer="-1.00" shape="1101.548536,2434.957160 1107.657255,2411.947445 1089.105857,2407.092034 1082.997139,2430.101750 1101.548536,2434.957160"/>
    <poly id="124549214" type="landuse.meadow" color="194,194,130" fill="1" layer="-3.00" shape="1064.966727,2352.809697 1069.740767,2353.780261 1072.422264,2353.458339 1076.637472,2349.365704 1078.302746,2341.570683 1079.466855,2332.869346 1080.442384,2325.362108 1077.580407,2320.675924 1070.090015,2317.009116 1063.814467,2317.399125 1059.031247,2320.419643 1057.197139,2324.267892 1054.719256,2331.399973 1052.542244,2339.427413 1052.378148,2345.187469 1055.585219,2350.183041 1060.415176,2351.728469 1064.966727,2352.809697"/>
    <poly id="124549217" type="building.yes" color="255,230,230" fill="1" layer="-1.00" shape="1083.786118,2382.374278 1080.699082,2372.536288 1083.434903,2369.527826 1089.821786,2369.270429 1093.692116,2365.310630 1108.007761,2332.158913 1106.125652,2328.854203 1086.928571,2323.379987 1084.089966,2320.982304 1086.136862,2319.942078 1089.107618,2319.520514 1083.365242,2317.997642 1084.202007,2299.755470 1084.466292,2294.083811 1077.970255,2298.686117 1071.795461,2300.325361 1048.530641,2304.725795 1043.303115,2309.349593 1042.427230,2315.828612 1044.422527,2323.058010 1043.857793,2328.696650 1041.989709,2331.328799 1041.144501,2332.268939 1032.255962,2336.551802 1030.454474,2338.841194 1032.827659,2367.960528 1036.123398,2372.237442 1042.525215,2379.774245 1042.384271,2387.369522 1041.529962,2392.455523 1062.594296,2416.380641 1067.290159,2416.765294 1071.249721,2413.247675 1072.505112,2409.189651 1074.072318,2405.651089 1088.222264,2397.783638 1089.466879,2394.444235 1083.786118,2382.374278"/>
    <poly id="124549218" type="landuse.meadow" color="194,194,130" fill="1" layer="-3.00" shape="1045.190661,2369.369609 1047.133655,2360.634724 1052.604767,2353.534348 1060.695370,2355.852077 1065.837244,2358.127023 1067.809094,2362.913141 1065.733718,2373.991881 1065.122732,2376.059579 1061.463020,2378.383045 1048.165298,2376.897031 1045.504366,2373.758535 1045.190661,2369.369609"/>
    <poly id="124550688" type="building.yes" color="255,230,230" fill="1" layer="-1.00" shape="1083.365242,2317.997642 1084.202007,2299.755470 1084.466292,2294.083811 1085.956154,2291.661905 1088.047716,2290.942270 1107.165539,2293.608401 1109.280466,2295.166211 1110.016004,2297.509642 1109.327763,2300.881939 1104.451724,2318.916024 1101.838004,2321.316367 1089.107618,2319.520514 1083.365242,2317.997642"/>
    <poly id="124836367" type="building.yes" color="255,230,230" fill="1" layer="-1.00" shape="907.761473,2306.839829 917.453636,2307.597932 917.895958,2301.937238 914.613310,2301.684562 916.095141,2282.822950 920.268003,2283.152580 920.798879,2276.541060 910.216506,2275.717058 907.761473,2306.839829"/>
    <poly id="124838300" type="landuse.grass" color="194,194,130" fill="1" layer="-3.00" shape="1364.873367,2115.001132 1366.865731,2116.227335 1370.159551,2116.579513 1372.762953,2115.837521 1375.387959,2113.757791 1376.699822,2111.402310 1377.077340,2109.743786 1376.663946,2106.272527 1375.327544,2103.929389 1373.813569,2102.537120 1371.365033,2101.399583 1369.061576,2101.135369 1366.413573,2101.689437 1364.244405,2102.995053 1362.520702,2105.074344 1361.798289,2106.832537 1361.543670,2109.519172 1361.922882,2111.343162 1363.214787,2113.708433 1364.873367,2115.001132"/>