<?xml version="1.0" encoding="UTF-8"?>

<!-- generated on 2021-10-22 21:16:31 by Eclipse SUMO polyconvert Version 1.10.0
<configuration xmlns:xsi="http://www.w3.org/2001/XMLSchema-instance" xsi:noNamespaceSchemaLocation="http://sumo.dlr.de/xsd/polyconvertConfiguration.xsd">

    <input>
        <net-file value="osm.net.xml"/>
        <osm-files value="osm_bbox.osm.xml"/>
        <osm.keep-full-type value="true"/>
        <type-file value="D:\Software\Sumo\data\typemap\osmPolyconvert.typ.xml"/>
    </input>

    <output>
        <output-file value="osm.poly.xml"/>
    </output>

    <processing>
        <poi-layer-offset value="5"/>
    </processing>

    <report>
        <verbose value="true"/>
    </report>

</configuration>
-->

<additional xmlns:xsi="http://www.w3.org/2001/XMLSchema-instance" xsi:noNamespaceSchemaLocation="http://sumo.dlr.de/xsd/additional_file.xsd">
    <location netOffset="-362411.49,-142028.22" convBoundary="-1973.04,-4220.66,8512.46,7017.62" origBoundary="103.745578,1.246507,103.839792,1.348183" projParameter="+proj=utm +zone=48 +ellps=WGS84 +datum=WGS84 +units=m +no_defs"/>

    <poly id="109013190" type="building.yes" color="255,230,230" fill="1" layer="-1.00" shape="2152.521890,983.169658 2152.542140,978.990642 2148.336045,978.970548 2148.407354,965.250548 2185.828252,965.453712 2185.736686,983.341671 2152.521890,983.169658"/>
    <poly id="109013191" type="building.hospital" color="255,230,230" fill="1" layer="-1.00" shape="2204.838835,953.327690 2205.745282,1010.462448 2216.794450,1010.158648 2223.662637,1015.793695 2245.649981,1015.772096 2276.783748,1015.469724 2285.436586,1006.864344 2266.923669,989.383308 2255.807537,989.267025 2245.136610,989.393752 2232.891143,977.835497 2232.835977,955.602771 2207.454915,955.802883 2204.838835,953.327690"/>
    <poly id="109013192" type="building.hospital" color="255,230,230" fill="1" layer="-1.00" shape="2119.453707,987.088141 2119.507654,960.377848 2138.156875,960.413123 2138.102931,987.134471 2119.453707,987.088141"/>
    <poly id="109013196" type="building.hospital" color="255,230,230" fill="1" layer="-1.00" shape="2066.866528,1010.296924 2067.144377,986.427801 2119.453707,987.088141 2138.102931,987.134471 2185.393853,987.741953 2185.127116,1011.600006 2138.392601,1011.080705 2121.679449,1010.900781 2066.866528,1010.296924"/>
    <poly id="109013197" type="building.hospital" color="255,230,230" fill="1" layer="-1.00" shape="2078.753240,1062.584092 2078.586480,1039.721241 2122.115968,1039.412898 2138.828975,1039.294320 2246.206130,1038.535247 2291.126488,1038.215208 2291.293320,1061.265987 2250.200712,1061.562083 2233.487712,1061.680656 2233.642607,1083.028888 2191.381643,1083.336611 2191.226650,1061.789376 2175.815524,1061.896271 2140.353243,1062.145459 2118.799920,1062.299529 2078.753240,1062.584092"/>
    <poly id="109013198" type="building.yes" color="255,230,230" fill="1" layer="-1.00" shape="2204.765398,939.408761 2204.490274,922.571258 2211.974830,914.110158 2255.537768,913.945560 2257.764327,916.277219 2263.909615,922.686505 2261.740886,924.931824 2257.047537,929.798523 2214.230013,929.730599 2204.765398,939.408761"/>
    <poly id="109013201" type="building.hospital" color="255,230,230" fill="1" layer="-1.00" shape="2067.521295,960.314349 2067.444626,939.673625 2067.432231,937.031348 2119.462981,936.840551 2136.932671,936.776894 2175.265841,936.636900 2183.522217,936.610830 2183.600144,959.893827 2138.156875,960.413123 2119.507654,960.377848 2067.521295,960.314349"/>
    <poly id="109013202" type="building.hospital" color="255,230,230" fill="1" layer="-1.00" shape="2207.454915,955.802883 2204.838835,953.327690 2197.780943,946.565064 2204.765398,939.408761 2214.230013,929.730599 2257.047537,929.798523 2261.740886,924.931824 2263.909615,922.686505 2257.764327,916.277219 2260.668522,916.264772 2295.596807,916.236984 2301.227182,916.256398 2322.112265,938.070084 2318.909617,942.217456 2315.251040,946.962047 2302.599624,947.410330 2297.425566,947.600754 2289.146912,947.571553 2266.903922,948.179212 2260.854294,955.633565 2255.980559,955.591678 2232.835977,955.602771 2207.454915,955.802883"/>
    <poly id="109013203" type="building.hospital" color="255,230,230" fill="1" layer="-1.00" shape="2122.115968,1039.412898 2121.679449,1010.900781 2138.392601,1011.080705 2138.828975,1039.294320 2122.115968,1039.412898"/>
    <poly id="109013204" type="building.hospital" color="255,230,230" fill="1" layer="-1.00" shape="2255.807537,989.267025 2255.980559,955.591678 2260.854294,955.633565 2266.903922,948.179212 2289.146912,947.571553 2281.085227,959.128485 2281.259054,996.783668 2285.436586,1006.864344 2266.923669,989.383308 2255.807537,989.267025"/>
    <poly id="109013205" type="building.hospital" color="255,230,230" fill="1" layer="-1.00" shape="2059.772723,1114.112196 2058.991497,1039.785928 2078.586480,1039.721241 2078.753240,1062.584092 2079.066073,1088.398712 2119.068177,1087.981500 2118.799920,1062.299529 2140.353243,1062.145459 2140.633389,1089.419425 2176.095609,1089.048623 2175.815524,1061.896271 2191.226650,1061.789376 2191.381643,1083.336611 2191.484765,1089.538737 2233.734542,1089.109407 2233.642607,1083.028888 2233.487712,1061.680656 2250.200712,1061.562083 2250.480900,1088.946595 2291.617950,1088.517807 2291.293320,1061.265987 2291.126488,1038.215208 2307.449991,1038.008382 2307.695052,1061.766680 2308.243000,1113.838140 2298.929586,1113.942107 2299.069232,1126.700165 2291.458268,1126.781205 2279.340806,1126.897574 2279.305632,1123.160809 2260.890214,1123.357589 2261.041817,1137.840312 2263.445280,1137.817047 2267.907264,1137.770684 2268.140715,1160.500822 2263.756622,1160.547148 2261.275269,1160.570450 2261.310189,1163.776549 2257.615976,1163.811489 2153.899870,1164.878399 2140.458278,1165.017523 2132.101795,1165.109982 2114.754571,1165.284150 2114.311571,1123.306345 2114.217870,1113.555373 2059.772723,1114.112196"/>
    <poly id="109044380" type="landuse.forest" color="140,196,107" fill="1" layer="-3.00" shape="2002.682872,1052.659559 1995.838262,1026.638014 1993.986312,1016.578327 1992.123230,1006.507589 1986.533363,975.001873 1987.811144,971.153918 2002.033331,928.151942 2016.464795,903.855909 2023.795485,899.385937 2058.158972,928.091836 2048.107105,966.138901 2038.781684,987.613309 2011.545436,1017.376949 2002.682872,1052.659559"/>
    <poly id="111973157" type="amenity.theatre" color="237,199,199" fill="1" layer="-1.00" shape="966.058179,1967.359644 974.780366,1941.341525 1009.781937,1954.657551 1009.774970,1940.351586 1015.594501,1940.348752 1021.114103,1941.385292 1024.998296,1943.019632 1020.375762,1956.133844 1031.570709,1958.129458 1052.722965,1888.380339 1086.828261,1889.181858 1100.724241,1930.998482 1109.059595,1956.068555 1112.826052,1967.288169 1089.919533,1976.331756 1064.629923,1981.540208 1040.083881,1982.735112 1023.003326,1982.146429 1006.656197,1979.567378 986.657640,1973.496531 966.058179,1967.359644"/>
    <poly id="111973157#1" type="building.yes" color="255,230,230" fill="1" layer="-1.00" shape="966.058179,1967.359644 974.780366,1941.341525 1009.781937,1954.657551 1009.774970,1940.351586 1015.594501,1940.348752 1021.114103,1941.385292 1024.998296,1943.019632 1020.375762,1956.133844 1031.570709,1958.129458 1052.722965,1888.380339 1086.828261,1889.181858 1100.724241,1930.998482 1109.059595,1956.068555 1112.826052,1967.288169 1089.919533,1976.331756 1064.629923,1981.540208 1040.083881,1982.735112 1023.003326,1982.146429 1006.656197,1979.567378 986.657640,1973.496531 966.058179,1967.359644"/>
    <poly id="118374584" type="amenity.restaurant" color="237,199,199" fill="1" layer="-1.00" shape="1585.895826,786.099693 1595.589248,789.422763 1594.477949,792.386197 1602.680327,795.721041 1604.547654,791.463739 1609.766593,792.014008 1614.617529,790.895060 1619.088720,786.824451 1621.133547,781.450450 1620.573889,774.596251 1616.276373,769.601190 1609.754475,766.818317 1604.536514,768.302276 1599.686555,771.455453 1597.640750,774.795226 1591.107724,772.012359 1585.895826,786.099693"/>
    <poly id="118374584#1" type="building.yes" color="255,230,230" fill="1" layer="-1.00" shape="1585.895826,786.099693 1595.589248,789.422763 1594.477949,792.386197 1602.680327,795.721041 1604.547654,791.463739 1609.766593,792.014008 1614.617529,790.895060 1619.088720,786.824451 1621.133547,781.450450 1620.573889,774.596251 1616.276373,769.601190 1609.754475,766.818317 1604.536514,768.302276 1599.686555,771.455453 1597.640750,774.795226 1591.107724,772.012359 1585.895826,786.099693"/>
    <poly id="119802912" type="amenity.parking" color="184,184,179" fill="1" layer="-1.00" shape="500.518339,780.797593 506.665034,789.948678 525.975352,776.263496 529.193455,781.049025 538.036454,774.477692 535.352847,770.487909 550.704445,762.144521 549.724125,759.834369 554.541077,757.444018 553.471739,755.133909 561.325660,751.139020 558.741599,745.910958 553.735440,748.212955 551.418904,743.957659 520.971032,759.406080 500.971159,773.788101 503.921951,778.043089 500.518339,780.797593"/>
    <poly id="119817381" type="leisure.swimming_pool" color="207,245,201" fill="1" layer="-2.00" shape="1102.991634,1077.194517 1137.746885,1041.246970 1125.122766,1029.202457 1090.367513,1065.150006 1102.991634,1077.194517"/>
    <poly id="119851909" type="leisure.park" color="207,245,201" fill="1" layer="-2.00" shape="510.194744,611.122081 427.579059,666.141786 421.919586,675.044318 419.175103,683.204709 419.100975,690.965803 419.939038,698.217895 421.255188,704.673749 425.631313,711.072841 437.629979,718.197909 445.074274,718.492802 484.453519,695.113153 545.553440,672.187332 617.113715,650.737925 705.038388,621.386913 835.682881,596.636557 1077.826978,511.822636 1089.375134,507.781773 1106.428967,498.929066 1127.409995,488.559851 1150.640248,481.340404 1167.585487,478.048728 1184.430458,474.502823 1273.910852,440.872829 1429.248208,373.082606 1444.687977,362.948263 1445.663645,355.595821 1409.101460,313.392040 1238.233196,109.111235 1213.310229,136.729051 1179.179197,198.568407 1151.485838,226.773521 1120.606570,247.672416 1012.448483,315.042089 748.488589,479.478009 608.047053,563.037996 510.194744,611.122081"/>
    <poly id="119851912" type="leisure.park" color="207,245,201" fill="1" layer="-2.00" shape="-230.613004,1801.236936 -125.902278,1830.394599 -54.346543,1686.713353 16.985101,1539.616110 157.561116,1231.338020 211.966713,1103.265005 235.274588,1004.084520 249.951739,981.767088 285.964939,901.176046 309.035369,862.735422 328.449415,833.528042 356.020274,805.366993 368.554509,792.569533 392.689594,769.661591 398.052597,746.010978 394.360178,726.864403 379.229391,708.707328 363.236637,702.844541 344.489680,708.038731 35.721533,897.328809 59.454777,940.434294 59.770525,949.024382 56.780979,956.610015 49.740202,962.351327 5.077278,989.315714 19.332477,1014.493544 -56.557586,1056.110864 -50.077208,1064.919061 -33.156704,1079.327381 -34.723968,1082.777510 -40.374082,1087.998536 -34.083392,1095.734426 -37.346215,1113.358732 -46.939166,1133.639485 -55.568395,1144.997855 -68.070722,1154.710824 -79.884889,1160.874592 -92.645944,1164.849804 -103.318061,1162.699162 -121.077351,1139.623620 -117.907133,1137.455163 -132.626975,1117.860668 -137.901789,1116.879290 -156.912048,1129.735250 -157.209741,1135.351670 -141.053866,1156.194753 -133.590358,1150.254219 -123.434661,1165.837738 -124.272613,1181.647739 -150.008150,1208.260227 -155.331646,1221.507509 -157.193389,1237.141122 -192.128895,1245.671059 -205.888171,1256.258054 -269.600715,1329.179211 -292.790664,1350.505885 -295.571191,1353.149551 -349.137024,1400.460873 -417.923484,1473.484120 -437.853450,1516.810014 -471.360392,1556.671100 -507.453555,1586.959257 -511.899791,1596.480376 -271.939516,1778.891619 -230.613004,1801.236936"/>
    <poly id="121291682" type="building.yes" color="255,230,230" fill="1" layer="-1.00" shape="1125.290820,1949.139843 1135.648451,1945.442228 1131.904659,1935.062830 1121.535894,1938.749394 1125.290820,1949.139843"/>
    <poly id="121291683" type="leisure.swimming_pool" color="207,245,201" fill="1" layer="-2.00" shape="1396.000749,1643.155009 1421.171348,1644.911708 1421.911846,1634.541195 1396.730119,1632.784501 1396.000749,1643.155009"/>
    <poly id="121291684" type="building.yes" color="255,230,230" fill="1" layer="-1.00" shape="1139.104590,1936.352834 1182.960536,1920.919979 1176.174815,1901.896574 1132.318865,1917.329427 1139.104590,1936.352834"/>
    <poly id="121293428" type="building.apartments" color="255,230,230" fill="1" layer="-1.00" shape="515.937926,1849.670980 528.525650,1855.446929 531.237843,1849.608229 538.661370,1853.009739 535.571239,1859.644629 547.413270,1865.078217 561.107636,1835.619322 571.257943,1840.268787 568.601325,1845.985847 580.543515,1851.452554 591.581262,1827.699667 579.460993,1822.144601 575.892892,1829.807896 568.736480,1826.527867 572.037802,1819.428539 560.140125,1813.972864 546.012248,1844.360643 535.550301,1839.556551 539.173978,1831.771615 526.886760,1826.139242 515.937926,1849.670980"/>
    <poly id="121293429" type="building.apartments" color="255,230,230" fill="1" layer="-1.00" shape="523.344577,1977.934837 510.745745,1972.192067 513.446808,1966.353371 506.023288,1962.962920 502.955421,1969.608857 491.102279,1964.208446 501.750885,1941.130128 504.718715,1934.705353 494.568418,1930.078003 491.922931,1935.795060 479.969621,1930.350475 490.951707,1906.575489 503.094222,1912.108428 499.548386,1919.782772 506.715916,1923.040681 509.994980,1915.941361 521.903768,1921.363858 514.712064,1936.944763 507.853816,1951.784777 518.338000,1956.555687 521.939412,1948.759704 534.237744,1954.369955 523.344577,1977.934837"/>
    <poly id="121293430" type="building.apartments" color="255,230,230" fill="1" layer="-1.00" shape="544.638771,1925.598112 557.215364,1931.374064 559.927556,1925.535364 567.351080,1928.936873 564.260957,1935.582818 576.102978,1941.005348 589.797335,1911.546453 599.947639,1916.195917 597.291024,1921.912976 609.233210,1927.379682 620.270954,1903.637851 608.150684,1898.071731 604.582585,1905.735026 597.426175,1902.454998 600.727495,1895.355670 588.829822,1889.899998 574.701954,1920.287776 564.240011,1915.483687 567.863685,1907.698751 555.576470,1902.066380 544.638771,1925.598112"/>
    <poly id="121293431" type="building.apartments" color="255,230,230" fill="1" layer="-1.00" shape="463.701819,1999.047101 451.102990,1993.315388 453.804045,1987.465635 446.380523,1984.075185 443.301536,1990.732185 431.448386,1985.320721 445.075948,1955.828669 434.914521,1951.201326 432.280162,1956.918380 420.326850,1951.473797 431.308924,1927.687747 443.451443,1933.220684 439.905608,1940.895031 447.062018,1944.164000 450.352203,1937.053616 462.261000,1942.487166 448.211049,1972.897040 458.684113,1977.679009 462.285524,1969.883023 474.583853,1975.482217 463.701819,1999.047101"/>
    <poly id="121293432" type="building.apartments" color="255,230,230" fill="1" layer="-1.00" shape="567.478177,1984.093364 580.065894,1989.869309 582.778084,1984.030609 590.190479,1987.432122 587.111485,1994.078061 598.953504,1999.500590 612.647853,1970.041696 622.798155,1974.691158 620.141541,1980.408217 632.072597,1985.874926 643.121463,1962.133090 630.990068,1956.566977 627.433098,1964.230267 620.276689,1960.950240 623.578008,1953.850912 611.680337,1948.395242 597.552477,1978.783020 587.090536,1973.978932 590.703081,1966.194001 578.426997,1960.561627 567.478177,1984.093364"/>
    <poly id="121293433" type="building.apartments" color="255,230,230" fill="1" layer="-1.00" shape="493.176159,1790.656059 505.752758,1796.432015 508.464953,1790.593316 515.888481,1793.994826 512.798349,1800.629716 524.640382,1806.063306 538.334756,1776.604411 548.485065,1781.253878 545.828441,1786.959882 557.770639,1792.437647 568.808392,1768.684760 556.688120,1763.129691 553.120017,1770.792986 545.963603,1767.512956 549.264928,1760.413628 537.367248,1754.957951 523.239362,1785.345731 512.777413,1780.541638 516.401092,1772.756701 504.113866,1767.113271 493.176159,1790.656059"/>
    <poly id="121293449" type="amenity.parking" color="184,184,179" fill="1" layer="-1.00" shape="478.977223,1789.468985 409.243767,1905.244536 410.126825,1913.436332 460.699679,1935.312821 463.123069,1930.513490 473.256350,1923.090203 478.832250,1925.453384 487.146594,1907.395466 481.581746,1904.877501 489.573634,1887.295133 494.771056,1889.348942 520.925209,1831.559414 516.473241,1829.361517 519.674655,1822.748684 515.719461,1812.457819 518.198237,1807.138849 478.977223,1789.468985"/>
    <poly id="121293451" type="building.yes" color="255,230,230" fill="1" layer="-1.00" shape="712.836808,1877.656166 721.692574,1874.567326 718.405512,1865.282203 709.549752,1868.382098 712.836808,1877.656166"/>
    <poly id="121293452" type="amenity.parking" color="184,184,179" fill="1" layer="-1.00" shape="475.653344,2000.843324 579.225169,2045.512719 589.606391,2021.771201 486.023439,1977.101801 475.653344,2000.843324"/>
    <poly id="121293453" type="building.yes" color="255,230,230" fill="1" layer="-1.00" shape="650.339055,1908.410259 713.074056,1884.985932 707.246999,1869.577230 644.500871,1893.012616 650.339055,1908.410259"/>
    <poly id="121293454" type="amenity.kindergarten" color="237,199,199" fill="1" layer="-1.00" shape="630.962231,1876.767448 646.070366,1871.353871 642.426874,1861.339248 651.560730,1858.062324 640.641379,1828.007394 628.403563,1832.391395 623.467570,1818.806433 611.474515,1823.112927 630.962231,1876.767448"/>
    <poly id="121293454#1" type="building.yes" color="255,230,230" fill="1" layer="-1.00" shape="630.962231,1876.767448 646.070366,1871.353871 642.426874,1861.339248 651.560730,1858.062324 640.641379,1828.007394 628.403563,1832.391395 623.467570,1818.806433 611.474515,1823.112927 630.962231,1876.767448"/>
    <poly id="139957953" type="building.yes" color="255,230,230" fill="1" layer="-1.00" shape="944.337196,1691.742592 977.470822,1707.945069 1012.387177,1637.481703 979.253557,1621.290272 974.773617,1630.203277 972.639345,1634.637618 944.337196,1691.742592"/>
    <poly id="139959760" type="building.yes" color="255,230,230" fill="1" layer="-1.00" shape="1052.484881,1627.578500 1084.449351,1642.167439 1113.882127,1576.040582 1082.429424,1561.274496 1052.484881,1627.578500"/>
    <poly id="139959807" type="building.yes" color="255,230,230" fill="1" layer="-1.00" shape="995.909668,1618.518273 1027.730090,1634.334453 1053.774545,1579.508061 1021.364649,1564.244941 995.909668,1618.518273"/>
    <poly id="139960333" type="building.yes" color="255,230,230" fill="1" layer="-1.00" shape="1014.109768,1564.392188 998.918528,1559.092871 1002.208530,1551.562398 1004.475971,1546.387268 1006.765645,1541.167905 1051.177832,1525.292588 1057.040859,1523.189175 1058.754157,1522.580284 1064.314483,1538.729838 1019.746680,1554.936898 1014.109768,1564.392188"/>
    <poly id="139960627" type="building.yes" color="255,230,230" fill="1" layer="-1.00" shape="969.891922,1545.110560 957.164555,1549.605325 950.806291,1563.007824 954.806301,1573.984109 963.918011,1570.917275 964.408340,1572.420601 973.698059,1569.298403 977.365865,1560.695350 974.201285,1551.542836 972.788363,1552.029970 969.891922,1545.110560"/>
    <poly id="139970613" type="building.yes" color="255,230,230" fill="1" layer="-1.00" shape="1056.190187,1489.956410 1062.808757,1508.493464 1052.962800,1511.870205 1055.402946,1518.635057 1057.040859,1523.189175 1051.177832,1525.292588 1049.551046,1520.738464 1047.010593,1513.641993 1020.031874,1523.549866 1021.302111,1527.120214 997.315902,1535.556241 988.471207,1538.545554 969.891922,1545.110560 957.164555,1549.605325 950.806291,1563.007824 941.735764,1582.127396 940.246225,1585.234749 938.023058,1589.923412 936.765397,1589.338076 928.817577,1606.102258 926.527691,1610.879399 925.316076,1613.455947 920.841909,1611.357555 914.998782,1608.618602 924.124889,1589.388443 916.645683,1585.876392 933.942040,1549.638720 936.665429,1543.910586 941.845329,1532.819283 960.168711,1526.298622 984.254934,1517.586152 988.026398,1516.213423 1013.314147,1507.058149 1017.729928,1503.496097 1040.692574,1495.348017 1045.821340,1493.521351 1056.190187,1489.956410"/>
    <poly id="139971771" type="building.yes" color="255,230,230" fill="1" layer="-1.00" shape="899.188451,1680.255655 916.495265,1688.428394 933.280316,1653.351805 940.214168,1656.620896 954.798277,1626.155576 956.899189,1621.765474 958.633273,1618.138388 972.783863,1588.568788 963.479369,1584.184230 964.635419,1581.751432 955.943062,1577.654022 951.574494,1586.777030 941.735764,1582.127396 940.246225,1585.234749 950.563539,1590.116318 941.448473,1609.169580 934.447841,1605.867353 933.325136,1608.222746 928.817577,1606.102258 926.527691,1610.879399 931.313495,1613.132419 906.035862,1665.946351 904.012767,1670.181638 899.188451,1680.255655"/>
    <poly id="139972031" type="building.yes" color="255,230,230" fill="1" layer="-1.00" shape="845.963590,1696.279041 862.862725,1689.858555 867.457425,1688.120586 871.786927,1690.196936 873.090555,1693.778323 879.853782,1712.271086 871.676806,1715.425918 862.142534,1719.045747 852.069791,1713.699730 850.365125,1709.178810 845.963590,1696.279041"/>
    <poly id="139974054" type="building.yes" color="255,230,230" fill="1" layer="-1.00" shape="893.906584,1710.451125 889.031606,1707.877538 894.790096,1696.752781 905.152118,1702.043382 902.939909,1706.378261 904.923353,1712.126219 927.719261,1704.365138 931.051018,1714.059295 932.885003,1709.934657 941.432528,1713.667298 937.364424,1722.834385 933.513582,1721.144749 936.499900,1729.821957 882.052283,1748.355564 880.993765,1745.415284 868.695326,1739.550736 872.419189,1731.832099 877.160489,1734.096194 873.605933,1723.882530 895.923452,1716.287512 895.032015,1713.700930 893.906584,1710.451125"/>
    <poly id="139974326" type="building.yes" color="255,230,230" fill="1" layer="-1.00" shape="880.343511,1643.936053 880.900002,1644.201117 892.497223,1649.645897 900.311683,1633.235555 891.040579,1628.873094 888.157972,1627.525710 880.343511,1643.936053"/>
    <poly id="139974364" type="building.yes" color="255,230,230" fill="1" layer="-1.00" shape="906.440914,1629.385218 914.611087,1612.233979 911.683954,1610.853449 901.210841,1605.938791 898.650993,1604.734973 890.580863,1621.676109 893.763975,1623.167069 891.040579,1628.873094 900.311683,1633.235555 902.923909,1627.739641 906.440914,1629.385218"/>
    <poly id="139974570" type="building.yes" color="255,230,230" fill="1" layer="-1.00" shape="848.013572,1655.836576 848.802798,1654.177849 851.170477,1649.201667 881.005498,1586.568113 882.117087,1584.234836 887.563871,1572.800676 893.629597,1575.650077 895.797192,1571.094107 901.273047,1573.678461 899.005409,1578.444535 905.071135,1581.293936 897.868044,1596.421527 895.289162,1601.840035 875.791906,1642.766371 873.846636,1646.868953 872.301522,1650.097947 870.289554,1654.333228 865.632002,1664.108664 854.168338,1658.730154 848.759263,1656.178938 848.013572,1655.836576"/>
    <poly id="139974600" type="building.yes" color="255,230,230" fill="1" layer="-1.00" shape="877.668594,1657.801103 870.289554,1654.333228 872.301522,1650.097947 874.382792,1651.080884 878.912606,1653.201360 885.434656,1656.271650 888.617769,1657.762610 897.588367,1661.981493 906.035862,1665.946351 904.012767,1670.181638 888.219620,1662.759944 879.070948,1658.463758 877.668594,1657.801103"/>
    <poly id="139974601" type="building.yes" color="255,230,230" fill="1" layer="-1.00" shape="914.774173,1604.373354 897.868044,1596.421527 895.289162,1601.840035 901.722172,1604.866147 901.210841,1605.938791 911.683954,1610.853449 914.774173,1604.373354"/>
    <poly id="139974638" type="building.yes" color="255,230,230" fill="1" layer="-1.00" shape="991.545968,1546.050824 988.471207,1538.545554 997.315902,1535.556241 999.087542,1540.519353 994.948923,1541.980704 999.233882,1543.990745 1004.475971,1546.387268 1002.208530,1551.562398 996.621261,1548.679596 991.545968,1546.050824"/>
    <poly id="139974766" type="building.yes" color="255,230,230" fill="1" layer="-1.00" shape="1037.773280,1487.190390 1033.672971,1475.882485 1038.812838,1474.000536 1045.821340,1493.521351 1040.692574,1495.348017 1037.773280,1487.190390"/>
    <poly id="139976284" type="building.yes" color="255,230,230" fill="1" layer="-1.00" shape="864.150977,1593.220738 860.222162,1591.365304 857.609935,1596.861219 847.281505,1592.012824 849.649180,1587.025587 846.020875,1585.324786 848.144009,1580.868338 835.144430,1574.760901 860.622037,1521.261412 866.420652,1523.989331 867.721216,1521.269016 864.894249,1519.932660 866.406005,1516.747906 871.708289,1505.623374 881.747347,1510.339245 880.035494,1513.922098 897.921038,1522.315677 896.598246,1525.091281 894.408423,1529.702539 870.931667,1578.988855 869.820079,1581.322132 864.150977,1593.220738"/>
    <poly id="139976357" type="building.yes" color="255,230,230" fill="1" layer="-1.00" shape="858.504109,1605.075111 854.575299,1603.230733 841.664755,1597.156421 840.742136,1599.091604 833.975231,1595.910876 830.584884,1603.021291 824.107357,1599.984146 810.412596,1628.735431 806.744360,1636.442986 813.010427,1639.391788 810.753897,1644.113638 812.990981,1645.162833 817.965993,1647.504204 816.976676,1649.572087 833.593432,1657.380326 837.628500,1648.920810 839.996184,1643.955684 858.504109,1605.075111"/>
    <poly id="139977923" type="building.yes" color="255,230,230" fill="1" layer="-1.00" shape="839.996184,1643.955684 837.628500,1648.920810 848.802798,1654.177849 851.170477,1649.201667 839.996184,1643.955684"/>
    <poly id="139978177" type="building.yes" color="255,230,230" fill="1" layer="-1.00" shape="887.001987,1652.965256 885.434656,1656.271650 888.617769,1657.762610 892.497223,1649.645897 880.900002,1644.201117 880.522058,1644.986250 875.791906,1642.766371 873.846636,1646.868953 875.927901,1647.840836 874.382792,1651.080884 878.912606,1653.201360 880.479937,1649.894967 887.001987,1652.965256"/>
    <poly id="139978478" type="building.yes" color="255,230,230" fill="1" layer="-1.00" shape="956.899189,1621.765474 954.798277,1626.155576 969.211365,1633.003053 972.639345,1634.637618 974.773617,1630.203277 971.256608,1628.546644 956.899189,1621.765474"/>
    <poly id="139978993" type="building.yes" color="255,230,230" fill="1" layer="-1.00" shape="804.993772,1674.740520 800.018760,1672.399150 788.944734,1667.407399 787.155199,1671.410406 791.640409,1673.331901 790.151093,1676.892537 785.376500,1674.816405 779.852044,1686.681780 801.212499,1747.366756 808.688734,1744.776099 809.346081,1746.500456 810.003432,1748.235869 795.473775,1753.372756 803.930606,1776.497002 826.303339,1768.039607 831.300706,1770.591022 836.453892,1773.219750 839.099490,1767.712761 841.222631,1763.278423 864.107140,1754.666005 856.128939,1731.851085 841.666147,1737.197993 840.162023,1733.196590 846.826019,1730.705830 841.890221,1717.485708 840.185549,1712.953733 836.565659,1705.680895 847.093719,1686.317375 841.929475,1683.832374 843.719156,1680.127869 849.996354,1683.087721 851.886298,1679.626391 845.742503,1676.412195 840.344560,1673.872029 836.571489,1671.939131 824.977367,1695.725420 822.431772,1700.944914 820.008464,1705.932180 806.724650,1710.239286 799.381632,1689.347732 798.958216,1688.153930 800.814531,1684.184058 804.993772,1674.740520"/>
    <poly id="139979042" type="building.yes" color="255,230,230" fill="1" layer="-1.00" shape="845.492277,1710.983249 850.365125,1709.178810 852.069791,1713.699730 841.890221,1717.485708 840.185549,1712.953733 845.492277,1710.983249"/>
    <poly id="139979070" type="building.yes" color="255,230,230" fill="1" layer="-1.00" shape="813.279895,1690.070636 824.977367,1695.725420 822.431772,1700.944914 799.381632,1689.347732 798.958216,1688.153930 800.814531,1684.184058 813.279895,1690.070636"/>
    <poly id="139979095" type="building.yes" color="255,230,230" fill="1" layer="-1.00" shape="844.201764,1665.766380 848.759263,1656.178938 854.168338,1658.730154 845.742503,1676.412195 840.344560,1673.872029 844.201764,1665.766380"/>
    <poly id="139979121" type="building.yes" color="255,230,230" fill="1" layer="-1.00" shape="867.899485,1681.896056 868.677600,1680.270501 879.070948,1658.463758 888.219620,1662.759944 873.090555,1693.778323 871.786927,1690.196936 867.457425,1688.120586 862.862725,1689.858555 863.107266,1689.327766 864.618933,1685.966121 866.630798,1681.520782 867.899485,1681.896056"/>
    <poly id="139979122" type="building.yes" color="255,230,230" fill="1" layer="-1.00" shape="858.074537,1682.707898 851.886298,1679.626391 849.996354,1683.087721 863.107266,1689.327766 864.618933,1685.966121 858.074537,1682.707898"/>
    <poly id="139979131" type="building.yes" color="255,230,230" fill="1" layer="-1.00" shape="806.099143,1659.637999 812.990981,1645.162833 817.965993,1647.504204 816.976676,1649.572087 804.993772,1674.740520 800.018760,1672.399150 806.099143,1659.637999"/>
    <poly id="139979137" type="building.yes" color="255,230,230" fill="1" layer="-1.00" shape="882.070590,1511.477817 889.985023,1494.691538 905.511025,1501.914370 897.607697,1518.656419 896.329382,1521.365668 893.268706,1519.952036 894.535910,1517.275960 882.070590,1511.477817"/>
    <poly id="139979278" type="building.yes" color="255,230,230" fill="1" layer="-1.00" shape="922.956296,1543.121243 920.944320,1547.345468 926.598241,1549.996069 928.087780,1546.888716 933.942040,1549.638720 936.665429,1543.910586 896.598246,1525.091281 894.408423,1529.702539 922.956296,1543.121243"/>
    <poly id="139979294" type="building.yes" color="255,230,230" fill="1" layer="-1.00" shape="1030.590583,1452.656133 1025.732523,1439.082195 1020.314491,1440.997446 1026.999348,1458.550519 1032.217074,1456.602199 1030.590583,1452.656133"/>
    <poly id="140074798" type="building.yes" color="255,230,230" fill="1" layer="-1.00" shape="984.672625,1506.994667 981.496914,1497.831103 977.703291,1499.402843 984.254934,1517.586152 988.026398,1516.213423 984.672625,1506.994667"/>