<net xmlns:xsi="http://www.w3.org/2001/XMLSchema-instance" junctionCornerDetail="5" lefthand="true" limitTurnSpeed="5.50" version="1.9" xsi:noNamespaceSchemaLocation="http://sumo.dlr.de/xsd/net_file.xsd">
	<location convBoundary="0.00,-0.00,2656.84,2065.13" netOffset="-362411.49,-142028.22" origBoundary="103.758673,1.265289,103.839792,1.348183" projParameter="+proj=utm +zone=48 +ellps=WGS84 +datum=WGS84 +units=m +no_defs" />
	<type allow="pedestrian" id="highway.bridleway" numLanes="1" oneway="1" priority="1" speed="2.78" width="2.00" />
	<type allow="bus" id="highway.bus_guideway" numLanes="1" oneway="1" priority="1" speed="27.78" />
	<type allow="bicycle" id="highway.cycleway" numLanes="1" oneway="0" priority="1" speed="8.33" width="1.00" />
	<type allow="pedestrian" id="highway.footway" numLanes="1" oneway="1" priority="1" speed="2.78" width="2.00" />
	<type allow="army" id="highway.ford" numLanes="1" oneway="0" priority="1" speed="2.78" />
	<type disallow="tram rail_urban rail rail_electric rail_fast ship" id="highway.living_street" numLanes="1" oneway="0" priority="2" speed="2.78" />
	<type allow="private emergency authority army vip passenger hov taxi bus coach delivery truck trailer motorcycle evehicle custom1 custom2" id="highway.motorway" numLanes="2" oneway="1" priority="14" speed="39.44" />
	<type allow="private emergency authority army vip passenger hov taxi bus coach delivery truck trailer motorcycle evehicle custom1 custom2" id="highway.motorway_link" numLanes="1" oneway="1" priority="9" speed="22.22" />
	<type allow="pedestrian bicycle" id="highway.path" numLanes="1" oneway="0" priority="1" speed="2.78" width="2.00" />
	<type allow="pedestrian" id="highway.pedestrian" numLanes="1" oneway="1" priority="1" speed="2.78" width="2.00" />
	<type disallow="tram rail_urban rail rail_electric rail_fast ship" id="highway.primary" numLanes="2" oneway="0" priority="12" speed="27.78" />
	<type disallow="tram rail_urban rail rail_electric rail_fast ship" id="highway.primary_link" numLanes="1" oneway="0" priority="7" speed="22.22" />
	<type allow="vip" id="highway.raceway" numLanes="2" oneway="0" priority="15" speed="83.33" />
	<type disallow="tram rail_urban rail rail_electric rail_fast ship" id="highway.residential" numLanes="1" oneway="0" priority="3" speed="13.89" />
	<type disallow="tram rail_urban rail rail_electric rail_fast ship" id="highway.secondary" numLanes="1" oneway="0" priority="11" speed="27.78" />
	<type disallow="tram rail_urban rail rail_electric rail_fast ship" id="highway.secondary_link" numLanes="1" oneway="0" priority="6" speed="22.22" />
	<type allow="pedestrian delivery bicycle" id="highway.service" numLanes="1" oneway="0" priority="1" speed="5.56" />
	<type allow="pedestrian" id="highway.stairs" numLanes="1" oneway="1" priority="1" speed="1.39" width="2.00" />
	<type allow="pedestrian" id="highway.step" numLanes="1" oneway="1" priority="1" speed="1.39" width="2.00" />
	<type allow="pedestrian" id="highway.steps" numLanes="1" oneway="1" priority="1" speed="1.39" width="2.00" />
	<type disallow="tram rail_urban rail rail_electric rail_fast ship" id="highway.tertiary" numLanes="1" oneway="0" priority="10" speed="22.22" />
	<type disallow="tram rail_urban rail rail_electric rail_fast ship" id="highway.tertiary_link" numLanes="1" oneway="0" priority="5" speed="22.22" />
	<type allow="pedestrian motorcycle moped bicycle" id="highway.track" numLanes="1" oneway="0" priority="1" speed="5.56" />
	<type disallow="pedestrian bicycle tram rail_urban rail rail_electric rail_fast ship" id="highway.trunk" numLanes="2" oneway="0" priority="13" speed="27.78" />
	<type disallow="pedestrian bicycle tram rail_urban rail rail_electric rail_fast ship" id="highway.trunk_link" numLanes="1" oneway="0" priority="8" speed="22.22" />
	<type disallow="tram rail_urban rail rail_electric rail_fast ship" id="highway.unclassified" numLanes="1" oneway="0" priority="4" speed="13.89" />
	<type disallow="tram rail_urban rail rail_electric rail_fast ship" id="highway.unsurfaced" numLanes="1" oneway="0" priority="1" speed="8.33" />
	<type allow="rail_fast" id="railway.highspeed" numLanes="1" oneway="1" priority="21" speed="69.44" />
	<type allow="rail_urban" id="railway.light_rail" numLanes="1" oneway="1" priority="19" speed="27.78" />
	<type allow="rail" id="railway.preserved" numLanes="1" oneway="1" priority="16" speed="27.78" />
	<type allow="rail" id="railway.rail" numLanes="1" oneway="1" priority="20" speed="44.44" />
	<type allow="rail_urban" id="railway.subway" numLanes="1" oneway="1" priority="18" speed="27.78" />
	<type allow="tram" id="railway.tram" numLanes="1" oneway="1" priority="17" speed="13.89" />
	<edge function="internal" id=":1119642662_0">
		<lane disallow="tram rail_urban rail rail_electric rail_fast ship" id=":1119642662_0_0" index="0" length="3.67" shape="2501.33,1592.02 2500.33,1592.45 2499.61,1592.66 2498.86,1592.70 2497.78,1592.60" speed="8.84" />
	</edge>
	<edge function="internal" id=":1119642662_1">
		<lane disallow="tram rail_urban rail rail_electric rail_fast ship" id=":1119642662_1_0" index="0" length="4.39" shape="2502.63,1594.95 2501.28,1595.54 2500.37,1595.97 2499.48,1596.44 2498.22,1597.17" speed="13.89" />
		<lane disallow="tram rail_urban rail rail_electric rail_fast ship" id=":1119642662_1_1" index="1" length="4.39" shape="2503.92,1597.87 2502.68,1598.42 2501.84,1598.81 2501.02,1599.25 2499.84,1599.93" speed="13.89" />
		<lane disallow="tram rail_urban rail rail_electric rail_fast ship" id=":1119642662_1_2" index="2" length="4.39" shape="2505.22,1600.80 2504.08,1601.30 2503.30,1601.66 2502.55,1602.06 2501.47,1602.69" speed="13.89" />
		<lane disallow="tram rail_urban rail rail_electric rail_fast ship" id=":1119642662_1_3" index="3" length="4.39" shape="2506.52,1603.72 2505.48,1604.18 2504.77,1604.51 2504.08,1604.87 2503.09,1605.44" speed="13.89" />
	</edge>
	<edge function="internal" id=":1199539758_0">
		<lane disallow="tram rail_urban rail rail_electric rail_fast ship" id=":1199539758_0_0" index="0" length="4.67" shape="1043.76,794.64 1044.70,793.55 1044.86,792.67 1044.26,792.01 1042.89,791.56" speed="3.65" />
	</edge>
	<edge function="internal" id=":1199539763_0">
		<lane disallow="tram rail_urban rail rail_electric rail_fast ship" id=":1199539763_0_0" index="0" length="4.67" shape="817.78,796.78 816.89,797.91 816.76,798.79 817.39,799.43 818.77,799.82" speed="3.65" />
	</edge>
	<edge function="internal" id=":1199539784_0">
		<lane disallow="tram rail_urban rail rail_electric rail_fast ship" id=":1199539784_0_0" index="0" length="9.04" shape="858.18,783.55 855.71,784.00 853.76,783.51 852.34,782.09 851.45,779.74" speed="6.30" />
	</edge>
	<edge function="internal" id=":1199539784_1">
		<lane disallow="tram rail_urban rail rail_electric rail_fast ship" id=":1199539784_1_0" index="0" length="14.44" shape="858.18,783.55 844.47,788.07" speed="13.89" />
	</edge>
	<edge function="internal" id=":1199539784_2">
		<lane disallow="tram rail_urban rail rail_electric rail_fast ship" id=":1199539784_2_0" index="0" length="14.46" shape="845.46,791.11 859.19,786.59" speed="13.89" />
	</edge>
	<edge function="internal" id=":1199539784_3">
		<lane disallow="tram rail_urban rail rail_electric rail_fast ship" id=":1199539784_3_0" index="0" length="5.79" shape="845.46,791.11 848.82,789.43 850.15,787.88" speed="8.34" />
	</edge>
	<edge function="internal" id=":1199539784_4">
		<lane disallow="tram rail_urban rail rail_electric rail_fast ship" id=":1199539784_4_0" index="0" length="2.34" shape="845.46,791.11 846.35,789.98 846.48,789.09" speed="3.65" />
	</edge>
	<edge function="internal" id=":1199539784_7">
		<lane disallow="tram rail_urban rail rail_electric rail_fast ship" id=":1199539784_7_0" index="0" length="8.57" shape="850.15,787.88 850.93,786.97 851.81,783.74 851.45,779.74" speed="8.34" />
	</edge>
	<edge function="internal" id=":1199539784_8">
		<lane disallow="tram rail_urban rail rail_electric rail_fast ship" id=":1199539784_8_0" index="0" length="2.34" shape="846.48,789.09 845.86,788.46 844.47,788.07" speed="3.65" />
	</edge>
	<edge function="internal" id=":1199539784_5">
		<lane disallow="tram rail_urban rail rail_electric rail_fast ship" id=":1199539784_5_0" index="0" length="9.55" shape="848.32,780.44 848.58,783.14 848.02,785.32 846.65,786.96 844.47,788.07" speed="6.90" />
	</edge>
	<edge function="internal" id=":1199539784_6">
		<lane disallow="tram rail_urban rail rail_electric rail_fast ship" id=":1199539784_6_0" index="0" length="14.59" shape="848.32,780.44 849.77,784.23 852.06,786.52 855.20,787.31 859.19,786.59" speed="7.83" />
	</edge>
	<edge function="internal" id=":1199539821_0">
		<lane disallow="tram rail_urban rail rail_electric rail_fast ship" id=":1199539821_0_0" index="0" length="14.56" shape="976.48,739.08 974.82,724.61" speed="13.89" />
	</edge>
	<edge function="internal" id=":1199539821_1">
		<lane disallow="tram rail_urban rail rail_electric rail_fast ship" id=":1199539821_1_0" index="0" length="6.08" shape="976.48,739.08 975.44,735.02 974.24,733.56" speed="7.72" />
	</edge>
	<edge function="internal" id=":1199539821_6">
		<lane disallow="tram rail_urban rail rail_electric rail_fast ship" id=":1199539821_6_0" index="0" length="8.82" shape="974.24,733.56 973.36,732.50 970.25,731.54 966.10,732.12" speed="7.72" />
	</edge>
	<edge function="internal" id=":1199539821_2">
		<lane disallow="tram rail_urban rail rail_electric rail_fast ship" id=":1199539821_2_0" index="0" length="9.05" shape="966.99,735.20 969.51,734.84 971.41,735.43 972.67,736.95 973.30,739.42" speed="6.16" />
	</edge>
	<edge function="internal" id=":1199539821_3">
		<lane disallow="tram rail_urban rail rail_electric rail_fast ship" id=":1199539821_3_0" index="0" length="14.53" shape="966.99,735.20 970.79,733.57 973.35,731.27 974.70,728.28 974.82,724.61" speed="8.60" />
	</edge>
	<edge function="internal" id=":1199539821_4">
		<lane disallow="tram rail_urban rail rail_electric rail_fast ship" id=":1199539821_4_0" index="0" length="9.95" shape="971.64,725.00 971.54,727.44 970.58,729.44 968.77,731.00 966.10,732.12" speed="7.21" />
	</edge>
	<edge function="internal" id=":1199539821_5">
		<lane disallow="tram rail_urban rail rail_electric rail_fast ship" id=":1199539821_5_0" index="0" length="14.52" shape="971.64,725.00 973.30,739.42" speed="13.89" />
	</edge>
	<edge function="internal" id=":1201719372_0">
		<lane disallow="tram rail_urban rail rail_electric rail_fast ship" id=":1201719372_0_0" index="0" length="4.67" shape="680.39,929.81 681.77,930.21 682.64,930.00 682.99,929.18 682.83,927.75" speed="3.65" />
	</edge>
	<edge function="internal" id=":1201719386_0">
		<lane disallow="tram rail_urban rail rail_electric rail_fast ship" id=":1201719386_0_0" index="0" length="4.67" shape="1085.80,823.75 1086.81,824.78 1087.67,825.02 1088.38,824.48 1088.94,823.16" speed="3.65" />
	</edge>
	<edge function="internal" id=":1201719402_0">
		<lane disallow="tram rail_urban rail rail_electric rail_fast ship" id=":1201719402_0_0" index="0" length="4.67" shape="742.60,893.97 744.00,894.31 744.86,894.06 745.17,893.22 744.95,891.80" speed="3.65" />
	</edge>
	<edge function="internal" id=":1201738169_0">
		<lane disallow="tram rail_urban rail rail_electric rail_fast ship" id=":1201738169_0_0" index="0" length="0.24" shape="287.39,1170.76 287.60,1170.86" speed="13.89" />
	</edge>
	<edge function="internal" id=":1201738169_1">
		<lane disallow="tram rail_urban rail rail_electric rail_fast ship" id=":1201738169_1_0" index="0" length="0.11" shape="286.24,1173.76 286.15,1173.71" speed="13.89" />
	</edge>
	<edge function="internal" id=":1201738180_0">
		<lane disallow="tram rail_urban rail rail_electric rail_fast ship" id=":1201738180_0_0" index="0" length="10.20" shape="332.32,1376.84 329.46,1377.18 327.66,1378.27 325.87,1379.58 323.05,1380.58" speed="13.89" />
	</edge>
	<edge function="internal" id=":1201738180_1">
		<lane disallow="tram rail_urban rail rail_electric rail_fast ship" id=":1201738180_1_0" index="0" length="8.92" shape="323.62,1383.73 326.07,1383.30 327.76,1383.11 329.46,1383.10 331.93,1383.23" speed="13.89" />
		<lane disallow="tram rail_urban rail rail_electric rail_fast ship" id=":1201738180_1_1" index="1" length="8.92" shape="323.62,1383.73 326.22,1382.77 327.85,1381.47 329.49,1380.38 332.13,1380.04" speed="13.89" />
	</edge>
	<edge function="internal" id=":1249297139_0">
		<lane disallow="tram rail_urban rail rail_electric rail_fast ship" id=":1249297139_0_0" index="0" length="8.33" shape="2399.53,1051.80 2398.25,1053.84 2396.69,1054.79 2395.10,1055.73 2393.67,1057.70" speed="13.89" />
		<lane disallow="tram rail_urban rail rail_electric rail_fast ship" id=":1249297139_0_1" index="1" length="8.33" shape="2399.53,1051.80 2396.59,1059.01" speed="13.89" />
		<lane disallow="tram rail_urban rail rail_electric rail_fast ship" id=":1249297139_0_2" index="2" length="8.33" shape="2399.53,1051.80 2399.15,1054.27 2399.62,1056.10 2400.04,1057.91 2399.51,1060.31" speed="13.89" />
	</edge>
	<edge function="internal" id=":1249567541_0">
		<lane disallow="tram rail_urban rail rail_electric rail_fast ship" id=":1249567541_0_0" index="0" length="9.19" shape="2330.66,1192.95 2330.71,1190.31 2331.30,1188.56 2332.33,1186.89 2333.68,1184.50" speed="13.83" />
		<lane disallow="tram rail_urban rail rail_electric rail_fast ship" id=":1249567541_0_1" index="1" length="10.10" shape="2330.66,1192.95 2330.21,1189.96 2329.78,1187.84 2329.82,1185.81 2330.80,1183.10" speed="13.89" />
	</edge>
	<edge function="internal" id=":1249567541_2">
		<lane disallow="tram rail_urban rail rail_electric rail_fast ship" id=":1249567541_2_0" index="0" length="10.38" shape="2330.66,1192.95 2330.28,1189.78 2329.59,1187.65 2328.32,1185.77 2326.22,1183.32" speed="12.85" />
		<lane disallow="tram rail_urban rail rail_electric rail_fast ship" id=":1249567541_2_1" index="1" length="10.38" shape="2327.47,1193.20 2327.02,1190.43 2326.13,1188.12 2324.81,1186.24 2323.06,1184.81" speed="9.17" />
	</edge>
	<edge function="internal" id=":1249567542_0">
		<lane disallow="tram rail_urban rail rail_electric rail_fast ship" id=":1249567542_0_0" index="0" length="9.75" shape="2314.16,1213.98 2315.64,1211.82 2316.66,1210.23 2317.95,1209.04 2320.25,1208.10" speed="11.65" />
		<lane disallow="tram rail_urban rail rail_electric rail_fast ship" id=":1249567542_0_1" index="1" length="9.75" shape="2311.64,1212.01 2313.49,1209.39 2314.83,1207.52 2316.50,1206.15 2319.37,1205.02" speed="12.88" />
	</edge>
	<edge function="internal" id=":1249567542_2">
		<lane disallow="tram rail_urban rail rail_electric rail_fast ship" id=":1249567542_2_0" index="0" length="9.76" shape="2310.12,1207.65 2312.18,1208.53 2314.55,1208.90 2317.24,1208.75 2320.25,1208.10" speed="10.33" />
		<lane disallow="tram rail_urban rail rail_electric rail_fast ship" id=":1249567542_2_1" index="1" length="9.76" shape="2310.55,1204.17 2312.53,1205.09 2314.66,1205.53 2316.94,1205.51 2319.37,1205.02" speed="9.69" />
	</edge>
	<edge function="internal" id=":1249567544_0">
		<lane disallow="tram rail_urban rail rail_electric rail_fast ship" id=":1249567544_0_0" index="0" length="8.17" shape="2301.33,1196.55 2301.47,1198.86 2300.98,1200.43 2300.01,1201.91 2298.70,1203.97" speed="10.62" />
		<lane disallow="tram rail_urban rail rail_electric rail_fast ship" id=":1249567544_0_1" index="1" length="9.31" shape="2301.33,1196.55 2301.99,1199.27 2302.52,1201.22 2302.50,1203.09 2301.50,1205.52" speed="11.32" />
	</edge>
	<edge function="internal" id=":1249567544_2">
		<lane disallow="tram rail_urban rail rail_electric rail_fast ship" id=":1249567544_2_0" index="0" length="9.33" shape="2301.33,1196.55 2302.04,1199.52 2303.05,1201.95 2304.36,1203.82 2305.96,1205.15" speed="9.84" />
		<lane disallow="tram rail_urban rail rail_electric rail_fast ship" id=":1249567544_2_1" index="1" length="9.33" shape="2304.49,1196.01 2305.08,1198.35 2306.01,1200.31 2307.25,1201.91 2308.83,1203.14" speed="9.14" />
	</edge>
	<edge function="internal" id=":1249567564_0">
		<lane disallow="tram rail_urban rail rail_electric rail_fast ship" id=":1249567564_0_0" index="0" length="7.67" shape="2397.51,1092.73 2399.01,1090.94 2400.30,1089.92 2401.52,1088.86 2402.81,1086.95" speed="13.89" />
		<lane disallow="tram rail_urban rail rail_electric rail_fast ship" id=":1249567564_0_1" index="1" length="7.67" shape="2397.51,1092.73 2398.55,1090.73 2398.88,1089.18 2399.14,1087.59 2399.97,1085.47" speed="13.89" />
		<lane disallow="tram rail_urban rail rail_electric rail_fast ship" id=":1249567564_0_2" index="2" length="7.67" shape="2394.86,1090.94 2395.83,1089.03 2396.12,1087.54 2396.35,1086.01 2397.14,1083.98" speed="13.89" />
	</edge>
	<edge function="internal" id=":1249567568_0">
		<lane disallow="tram rail_urban rail rail_electric rail_fast ship" id=":1249567568_0_0" index="0" length="7.72" shape="2426.51,977.79 2428.02,976.23 2429.34,975.46 2430.71,974.73 2432.38,973.30" speed="13.89" />
		<lane disallow="tram rail_urban rail rail_electric rail_fast ship" id=":1249567568_0_1" index="1" length="7.72" shape="2423.96,975.86 2425.52,974.22 2426.89,973.39 2428.31,972.62 2430.04,971.12" speed="13.89" />
		<lane disallow="tram rail_urban rail rail_electric rail_fast ship" id=":1249567568_0_2" index="2" length="7.72" shape="2423.96,975.86 2425.17,973.86 2425.72,972.30 2426.32,970.79 2427.71,968.93" speed="13.89" />
	</edge>
	<edge function="internal" id=":1249570061_0">
		<lane disallow="tram rail_urban rail rail_electric rail_fast ship" id=":1249570061_0_0" index="0" length="15.24" shape="2193.27,1327.56 2180.78,1336.29" speed="13.89" />
	</edge>
	<edge function="internal" id=":1249570061_1">
		<lane disallow="tram rail_urban rail rail_electric rail_fast ship" id=":1249570061_1_0" index="0" length="12.74" shape="2192.92,1336.02 2190.33,1334.79 2187.44,1334.43 2184.26,1334.92 2180.78,1336.29" speed="9.61" />
	</edge>
	<edge function="internal" id=":1345078953_0">
		<lane disallow="pedestrian bicycle tram rail_urban rail rail_electric rail_fast ship" id=":1345078953_0_0" index="0" length="14.78" shape="504.80,757.02 506.57,753.27 507.64,750.44 509.21,748.16 512.49,746.04" speed="13.89" />
		<lane disallow="pedestrian bicycle tram rail_urban rail rail_electric rail_fast ship" id=":1345078953_0_1" index="1" length="14.78" shape="502.03,755.41 504.10,751.18 505.43,748.05 507.32,745.53 511.10,743.15" speed="13.89" />
	</edge>
	<edge function="internal" id=":1345078953_2">
		<lane disallow="pedestrian bicycle tram rail_urban rail rail_electric rail_fast ship" id=":1345078953_2_0" index="0" length="15.55" shape="499.27,752.79 502.85,749.98 505.00,747.64 507.25,745.46 511.10,743.15" speed="13.89" />
		<lane disallow="pedestrian bicycle tram rail_urban rail rail_electric rail_fast ship" id=":1345078953_2_1" index="1" length="15.55" shape="497.52,750.11 501.20,747.24 503.43,744.85 505.75,742.63 509.71,740.27" speed="13.89" />
	</edge>
	<edge function="internal" id=":1345078970_0">
		<lane disallow="pedestrian bicycle tram rail_urban rail rail_electric rail_fast ship" id=":1345078970_0_0" index="0" length="8.20" shape="606.03,704.16 608.35,703.58 610.03,703.56 611.72,703.56 614.06,703.02" speed="13.89" />
		<lane disallow="pedestrian bicycle tram rail_urban rail rail_electric rail_fast ship" id=":1345078970_0_1" index="1" length="8.20" shape="604.93,701.15 607.27,700.56 608.97,700.54 610.67,700.53 613.03,699.99" speed="13.89" />
	</edge>
	<edge function="internal" id=":1345078974_0">
		<lane disallow="pedestrian bicycle tram rail_urban rail rail_electric rail_fast ship" id=":1345078974_0_0" index="0" length="8.16" shape="380.70,860.78 382.41,859.15 383.85,858.32 385.31,857.51 387.08,855.93" speed="13.89" />
		<lane disallow="pedestrian bicycle tram rail_urban rail rail_electric rail_fast ship" id=":1345078974_0_1" index="1" length="8.16" shape="378.25,858.72 379.99,857.06 381.44,856.21 382.92,855.38 384.71,853.78" speed="13.89" />
		<lane disallow="pedestrian bicycle tram rail_urban rail rail_electric rail_fast ship" id=":1345078974_0_2" index="2" length="8.16" shape="378.25,858.72 379.62,856.72 380.25,855.14 380.91,853.57 382.34,851.63" speed="13.89" />
	</edge>
	<edge function="internal" id=":1345078977_0">
		<lane disallow="pedestrian bicycle tram rail_urban rail rail_electric rail_fast ship" id=":1345078977_0_0" index="0" length="33.67" shape="798.00,637.95 804.31,634.19 810.72,630.23 818.15,626.33 827.57,622.72" speed="16.67" />
		<lane disallow="pedestrian bicycle tram rail_urban rail rail_electric rail_fast ship" id=":1345078977_0_1" index="1" length="33.67" shape="796.46,635.14 802.87,631.34 809.47,627.30 817.10,623.32 826.61,619.67" speed="16.67" />
	</edge>
	<edge function="internal" id=":1345078977_2">
		<lane disallow="pedestrian bicycle tram rail_urban rail rail_electric rail_fast ship" id=":1345078977_2_0" index="0" length="33.85" shape="794.91,631.52 826.61,619.67" speed="19.44" />
		<lane disallow="pedestrian bicycle tram rail_urban rail rail_electric rail_fast ship" id=":1345078977_2_1" index="1" length="33.85" shape="793.94,628.47 825.64,616.62" speed="19.44" />
	</edge>
	<edge function="internal" id=":1345078981_0">
		<lane disallow="tram rail_urban rail rail_electric rail_fast ship" id=":1345078981_0_0" index="0" length="9.49" shape="420.64,708.70 419.10,706.42 418.45,704.61 418.13,702.65 417.56,699.88" speed="15.28" />
		<lane disallow="tram rail_urban rail rail_electric rail_fast ship" id=":1345078981_0_1" index="1" length="10.82" shape="418.14,710.70 416.35,708.10 415.56,706.06 415.14,703.84 414.46,700.69" speed="15.28" />
	</edge>
	<edge function="internal" id=":1345078981_2">
		<lane disallow="tram rail_urban rail rail_electric rail_fast ship" id=":1345078981_2_0" index="0" length="11.32" shape="415.63,712.69 413.91,709.77 413.27,707.35 412.68,705.03 411.11,702.43" speed="16.67" />
	</edge>
	<edge function="internal" id=":1345078982_0">
		<lane disallow="pedestrian bicycle tram rail_urban rail rail_electric rail_fast ship" id=":1345078982_0_0" index="0" length="8.15" shape="237.18,1065.44 236.31,1067.67 235.37,1069.06 234.45,1070.47 233.64,1072.71" speed="13.89" />
	</edge>
	<edge function="internal" id=":1345078994_0">
		<lane disallow="pedestrian bicycle tram rail_urban rail rail_electric rail_fast ship" id=":1345078994_0_0" index="0" length="8.15" shape="395.37,846.78 397.13,845.22 398.60,844.44 400.08,843.68 401.89,842.17" speed="13.89" />
		<lane disallow="pedestrian bicycle tram rail_urban rail rail_electric rail_fast ship" id=":1345078994_0_1" index="1" length="8.15" shape="395.37,846.78 396.78,844.86 397.45,843.33 398.13,841.81 399.59,839.94" speed="13.89" />
		<lane disallow="pedestrian bicycle tram rail_urban rail rail_electric rail_fast ship" id=":1345078994_0_2" index="2" length="8.15" shape="393.00,844.63 394.43,842.69 395.11,841.14 395.81,839.61 397.29,837.72" speed="13.89" />
		<lane disallow="pedestrian bicycle tram rail_urban rail rail_electric rail_fast ship" id=":1345078994_0_3" index="3" length="8.15" shape="390.63,842.48 392.08,840.52 392.77,838.95 393.49,837.40 394.99,835.49" speed="13.89" />
	</edge>
	<edge function="internal" id=":1345079001_0">
		<lane disallow="tram rail_urban rail rail_electric rail_fast ship" id=":1345079001_0_0" index="0" length="19.40" shape="438.57,638.42 421.87,648.24" speed="13.89" />
		<lane disallow="tram rail_urban rail rail_electric rail_fast ship" id=":1345079001_0_1" index="1" length="19.40" shape="440.26,641.15 423.51,650.99" speed="13.89" />
	</edge>
	<edge function="internal" id=":1345079001_2">
		<lane disallow="tram rail_urban rail rail_electric rail_fast ship" id=":1345079001_2_0" index="0" length="19.03" shape="430.14,659.27 433.82,655.14 436.31,652.23 439.09,649.68 443.62,646.59" speed="13.89" />
		<lane disallow="tram rail_urban rail rail_electric rail_fast ship" id=":1345079001_2_1" index="1" length="19.03" shape="427.82,657.07 431.67,652.76 434.28,649.74 437.19,647.09 441.94,643.87" speed="13.89" />
	</edge>
	<edge function="internal" id=":1345079001_4">
		<lane disallow="tram rail_urban rail rail_electric rail_fast ship" id=":1345079001_4_0" index="0" length="10.36" shape="427.82,657.07 428.84,654.56 428.06,652.11 426.08,650.63 423.51,650.99" speed="5.13" />
	</edge>
	<edge function="internal" id=":1345079001_5">
		<lane disallow="tram rail_urban rail rail_electric rail_fast ship" id=":1345079001_5_0" index="0" length="19.48" shape="425.15,653.74 441.94,643.87" speed="13.89" />
	</edge>
	<edge function="internal" id=":1345079015_0">
		<lane disallow="pedestrian bicycle tram rail_urban rail rail_electric rail_fast ship" id=":1345079015_0_0" index="0" length="8.12" shape="516.12,698.03 513.83,698.87 512.14,699.11 510.45,699.38 508.21,700.32" speed="13.89" />
		<lane disallow="pedestrian bicycle tram rail_urban rail rail_electric rail_fast ship" id=":1345079015_0_1" index="1" length="8.12" shape="516.12,698.03 514.08,699.31 512.90,700.52 511.74,701.76 509.75,703.13" speed="13.89" />
		<lane disallow="pedestrian bicycle tram rail_urban rail rail_electric rail_fast ship" id=":1345079015_0_2" index="2" length="8.12" shape="517.52,700.91 515.52,702.17 514.37,703.36 513.24,704.59 511.28,705.93" speed="13.89" />
		<lane disallow="pedestrian bicycle tram rail_urban rail rail_electric rail_fast ship" id=":1345079015_0_3" index="3" length="8.12" shape="518.93,703.79 516.97,705.02 515.84,706.20 514.73,707.41 512.82,708.74" speed="13.89" />
	</edge>
	<edge function="internal" id=":1345086710_0">
		<lane disallow="tram rail_urban rail rail_electric rail_fast ship" id=":1345086710_0_0" index="0" length="8.18" shape="572.63,820.40 570.35,821.20 568.65,821.39 566.97,821.60 564.70,822.44" speed="16.67" />
		<lane disallow="tram rail_urban rail rail_electric rail_fast ship" id=":1345086710_0_1" index="1" length="8.18" shape="573.98,823.31 571.72,824.09 570.04,824.27 568.37,824.47 566.12,825.30" speed="16.67" />
		<lane disallow="tram rail_urban rail rail_electric rail_fast ship" id=":1345086710_0_2" index="2" length="8.18" shape="573.98,823.31 571.94,824.53 570.75,825.71 569.56,826.90 567.54,828.17" speed="16.67" />
	</edge>
	<edge function="internal" id=":1345103809_0">
		<lane disallow="tram rail_urban rail rail_electric rail_fast ship" id=":1345103809_0_0" index="0" length="12.24" shape="963.59,1805.43 960.29,1805.72 957.52,1806.15 954.79,1806.76 951.57,1807.60" speed="11.11" />
	</edge>
	<edge function="internal" id=":1345103809_1">
		<lane disallow="tram rail_urban rail rail_electric rail_fast ship" id=":1345103809_1_0" index="0" length="8.86" shape="956.12,1811.57 956.77,1809.13 956.23,1807.66 954.50,1807.15 951.57,1807.60" speed="5.39" />
	</edge>
	<edge function="internal" id=":1345143345_0">
		<lane disallow="tram rail_urban rail rail_electric rail_fast ship" id=":1345143345_0_0" index="0" length="7.90" shape="1029.12,1355.92 1030.48,1357.77 1031.08,1359.28 1031.63,1360.83 1032.85,1362.81" speed="11.11" />
	</edge>
	<edge function="internal" id=":1345143408_0">
		<lane disallow="tram rail_urban rail rail_electric rail_fast ship" id=":1345143408_0_0" index="0" length="7.89" shape="799.76,1291.03 801.99,1291.89 803.40,1292.80 804.82,1293.66 807.08,1294.35" speed="11.11" />
		<lane disallow="tram rail_urban rail rail_electric rail_fast ship" id=":1345143408_0_1" index="1" length="7.89" shape="800.60,1287.94 802.75,1288.78 804.11,1289.68 805.48,1290.53 807.68,1291.20" speed="11.11" />
		<lane disallow="tram rail_urban rail rail_electric rail_fast ship" id=":1345143408_0_2" index="2" length="7.89" shape="800.60,1287.94 802.83,1288.28 804.41,1288.11 806.00,1287.88 808.27,1288.06" speed="11.11" />
	</edge>
	<edge function="internal" id=":1358272512_0">
		<lane disallow="tram rail_urban rail rail_electric rail_fast ship" id=":1358272512_0_0" index="0" length="10.22" shape="1253.33,1608.34 1250.63,1607.29 1248.91,1606.29 1247.33,1605.02 1245.08,1603.16" speed="11.11" />
		<lane disallow="tram rail_urban rail rail_electric rail_fast ship" id=":1358272512_0_1" index="1" length="10.22" shape="1253.33,1608.34 1250.25,1607.68 1247.96,1607.64 1245.84,1607.31 1243.24,1605.78" speed="11.11" />
	</edge>
	<edge function="internal" id=":1358272512_2">
		<lane disallow="tram rail_urban rail rail_electric rail_fast ship" id=":1358272512_2_0" index="0" length="10.28" shape="1253.33,1608.34 1250.20,1607.61 1247.39,1607.67 1244.88,1608.51 1242.67,1610.13" speed="8.87" />
		<lane disallow="tram rail_urban rail rail_electric rail_fast ship" id=":1358272512_2_1" index="1" length="10.28" shape="1252.29,1611.37 1250.01,1610.89 1247.85,1611.08 1245.81,1611.92 1243.89,1613.42" speed="7.99" />
	</edge>
	<edge function="internal" id=":1358272514_0">
		<lane disallow="tram rail_urban rail rail_electric rail_fast ship" id=":1358272514_0_0" index="0" length="9.54" shape="1265.13,1608.11 1262.81,1609.12 1261.14,1609.90 1259.47,1610.16 1257.14,1609.64" speed="10.72" />
		<lane disallow="tram rail_urban rail rail_electric rail_fast ship" id=":1358272514_0_1" index="1" length="9.54" shape="1266.23,1611.11 1263.30,1612.33 1261.18,1613.18 1259.05,1613.38 1256.10,1612.67" speed="11.11" />
	</edge>
	<edge function="internal" id=":1358272514_2">
		<lane disallow="tram rail_urban rail rail_electric rail_fast ship" id=":1358272514_2_0" index="0" length="9.84" shape="1265.45,1615.32 1263.80,1612.80 1262.17,1611.44 1260.11,1610.60 1257.14,1609.64" speed="11.11" />
		<lane disallow="tram rail_urban rail rail_electric rail_fast ship" id=":1358272514_2_1" index="1" length="9.84" shape="1263.22,1617.90 1261.80,1615.65 1260.43,1614.37 1258.68,1613.55 1256.10,1612.67" speed="10.50" />
	</edge>
	<edge function="internal" id=":1358272531_0">
		<lane disallow="tram rail_urban rail rail_electric rail_fast ship" id=":1358272531_0_0" index="0" length="10.94" shape="1269.71,1629.99 1270.28,1626.78 1271.07,1624.60 1272.24,1622.64 1273.97,1620.09" speed="11.11" />
	</edge>
	<edge function="internal" id=":1358272531_1">